Largest isolated from Written by BCL::WriteToMDL,1830756
     RDKit          2D

 52 53  0 52  0  0  0  0  0  0999 V2000
   -6.9077    1.1863    0.0000 S   0  0  0  0  0  0  0  0  0  0  0  0
    5.6187   -1.5636    0.0000 O   0  0  0  0  0  0  0  0  0  0  0  0
    6.4602    0.8944    0.0000 O   0  0  0  0  0  0  0  0  0  0  0  0
    3.0692   -2.0638    0.0000 O   0  0  0  0  0  0  0  0  0  0  0  0
    4.7523    2.8522    0.0000 O   0  0  0  0  0  0  0  0  0  0  0  0
   -5.3122   -0.6426    0.0000 N   0  0  0  0  0  0  0  0  0  0  0  0
   -4.3152    1.8375    0.0000 N   0  0  0  0  0  0  0  0  0  0  0  0
    1.3613   -0.1060    0.0000 N   0  0  0  0  0  0  0  0  0  0  0  0
   -7.6780   -0.1008    0.0000 C   0  0  0  0  0  0  0  0  0  0  0  0
   -6.6920   -1.2312    0.0000 C   0  0  0  0  0  0  0  0  0  0  0  0
   -8.6991   -1.1996    0.0000 C   0  0  0  0  0  0  0  0  0  0  0  0
   -8.8776    0.7998    0.0000 C   0  0  0  0  0  0  0  0  0  0  0  0
   -5.4456    0.8514    0.0000 C   0  0  0  0  0  0  0  0  0  0  0  0
   -2.8961    1.3516    0.0000 C   0  0  0  0  0  0  0  0  0  0  0  0
   -2.6073   -0.1203    0.0000 C   0  0  0  0  0  0  0  0  0  0  0  0
   -1.7658    2.3377    0.0000 C   0  0  0  0  0  0  0  0  0  0  0  0
   -0.0579    0.3799    0.0000 C   0  0  0  0  0  0  0  0  0  0  0  0
   -1.1882   -0.6062    0.0000 C   0  0  0  0  0  0  0  0  0  0  0  0
   -0.3466    1.8518    0.0000 C   0  0  0  0  0  0  0  0  0  0  0  0
    2.4916    0.8801    0.0000 C   0  0  0  0  0  0  0  0  0  0  0  0
    3.9107    0.3942    0.0000 C   0  0  0  0  0  0  0  0  0  0  0  0
    5.0411    1.3803    0.0000 C   0  0  0  0  0  0  0  0  0  0  0  0
    4.1995   -1.0777    0.0000 C   0  0  0  0  0  0  0  0  0  0  0  0
    5.9074   -3.0356    0.0000 C   0  0  0  0  0  0  0  0  0  0  0  0
    7.5906    1.8805    0.0000 C   0  0  0  0  0  0  0  0  0  0  0  0
    8.7209    2.8665    0.0000 C   0  0  0  0  0  0  0  0  0  0  0  0
    6.1962   -4.5075    0.0000 C   0  0  0  0  0  0  0  0  0  0  0  0
   -5.9625   -2.5418    0.0000 H   0  0  0  0  0  0  0  0  0  0  0  0
   -7.2834   -1.7656    0.0000 H   0  0  0  0  0  0  0  0  0  0  0  0
   -7.9769    1.9993    0.0000 H   0  0  0  0  0  0  0  0  0  0  0  0
   -9.9177   -0.2810    0.0000 H   0  0  0  0  0  0  0  0  0  0  0  0
   -8.1857   -1.8094    0.0000 H   0  0  0  0  0  0  0  0  0  0  0  0
   -9.9142   -0.3201    0.0000 H   0  0  0  0  0  0  0  0  0  0  0  0
   -9.7202   -2.2984    0.0000 H   0  0  0  0  0  0  0  0  0  0  0  0
  -10.0771    1.7004    0.0000 H   0  0  0  0  0  0  0  0  0  0  0  0
   -4.6040    3.3094    0.0000 H   0  0  0  0  0  0  0  0  0  0  0  0
   -3.7377   -1.1064    0.0000 H   0  0  0  0  0  0  0  0  0  0  0  0
   -2.0546    3.8096    0.0000 H   0  0  0  0  0  0  0  0  0  0  0  0
   -0.8994   -2.0781    0.0000 H   0  0  0  0  0  0  0  0  0  0  0  0
    0.7837    2.8379    0.0000 H   0  0  0  0  0  0  0  0  0  0  0  0
    1.6501   -1.5779    0.0000 H   0  0  0  0  0  0  0  0  0  0  0  0
    2.2028    2.3520    0.0000 H   0  0  0  0  0  0  0  0  0  0  0  0
    7.3794   -2.7468    0.0000 H   0  0  0  0  0  0  0  0  0  0  0  0
    4.4355   -3.3243    0.0000 H   0  0  0  0  0  0  0  0  0  0  0  0
    8.5766    0.7501    0.0000 H   0  0  0  0  0  0  0  0  0  0  0  0
    6.6045    3.0108    0.0000 H   0  0  0  0  0  0  0  0  0  0  0  0
    7.7348    3.9969    0.0000 H   0  0  0  0  0  0  0  0  0  0  0  0
    9.7070    1.7362    0.0000 H   0  0  0  0  0  0  0  0  0  0  0  0
    9.8512    3.8526    0.0000 H   0  0  0  0  0  0  0  0  0  0  0  0
    7.6682   -4.2187    0.0000 H   0  0  0  0  0  0  0  0  0  0  0  0
    4.7243   -4.7963    0.0000 H   0  0  0  0  0  0  0  0  0  0  0  0
    6.4850   -5.9794    0.0000 H   0  0  0  0  0  0  0  0  0  0  0  0
  1  9  1  0
  1 13  1  0
  2 23  1  0
  2 24  1  0
  3 22  1  0
  3 25  1  0
  4 23  2  0
  5 22  2  0
  6 10  1  0
  6 13  2  0
  7 13  1  0
  7 14  1  0
  7 36  1  0
  8 17  1  0
  8 20  1  0
  8 41  1  0
  9 10  1  0
  9 11  1  0
  9 12  1  0
 10 28  1  0
 10 29  1  0
 11 32  1  0
 11 33  1  0
 11 34  1  0
 12 30  1  0
 12 31  1  0
 12 35  1  0
 14 15  2  0
 14 16  1  0
 15 18  1  0
 15 37  1  0
 16 19  2  0
 16 38  1  0
 17 18  2  0
 17 19  1  0
 18 39  1  0
 19 40  1  0
 20 21  2  0
 20 42  1  0
 21 22  1  0
 21 23  1  0
 24 27  1  0
 24 43  1  0
 24 44  1  0
 25 26  1  0
 25 45  1  0
 25 46  1  0
 26 47  1  0
 26 48  1  0
 26 49  1  0
 27 50  1  0
 27 51  1  0
 27 52  1  0
M  STY  8   1 DAT   2 DAT   3 DAT   4 DAT   5 DAT   6 DAT   7 DAT   8 DAT
M  STY  8   9 DAT  10 DAT  11 DAT  12 DAT  13 DAT  14 DAT  15 DAT  16 DAT
M  STY  8  17 DAT  18 DAT  19 DAT  20 DAT  21 DAT  22 DAT  23 DAT  24 DAT
M  STY  8  25 DAT  26 DAT  27 DAT  28 DAT  29 DAT  30 DAT  31 DAT  32 DAT
M  STY  8  33 DAT  34 DAT  35 DAT  36 DAT  37 DAT  38 DAT  39 DAT  40 DAT
M  STY  8  41 DAT  42 DAT  43 DAT  44 DAT  45 DAT  46 DAT  47 DAT  48 DAT
M  STY  4  49 DAT  50 DAT  51 DAT  52 DAT
M  SAL   1  1   1
M  SED   1 [#16&h0]
M  SAL   2  1   2
M  SED   2 [#8&h0]
M  SAL   3  1   3
M  SED   3 [#8&h0]
M  SAL   4  1   4
M  SED   4 [#8&h0]
M  SAL   5  1   5
M  SED   5 [#8&h0]
M  SAL   6  1   6
M  SED   6 [#7&h0]
M  SAL   7  1   7
M  SED   7 [#7&h0]
M  SAL   8  1   8
M  SED   8 [#7&h0]
M  SAL   9  1   9
M  SED   9 [#6&h0]
M  SAL  10  1  10
M  SED  10 [#6&h0]
M  SAL  11  1  11
M  SED  11 [#6&h0]
M  SAL  12  1  12
M  SED  12 [#6&h0]
M  SAL  13  1  13
M  SED  13 [#6&h0]
M  SAL  14  1  14
M  SED  14 [#6&h0]
M  SAL  15  1  15
M  SED  15 [#6&h0]
M  SAL  16  1  16
M  SED  16 [#6&h0]
M  SAL  17  1  17
M  SED  17 [#6&h0]
M  SAL  18  1  18
M  SED  18 [#6&h0]
M  SAL  19  1  19
M  SED  19 [#6&h0]
M  SAL  20  1  20
M  SED  20 [#6&h0]
M  SAL  21  1  21
M  SED  21 [#6&h0]
M  SAL  22  1  22
M  SED  22 [#6&h0]
M  SAL  23  1  23
M  SED  23 [#6&h0]
M  SAL  24  1  24
M  SED  24 [#6&h0]
M  SAL  25  1  25
M  SED  25 [#6&h0]
M  SAL  26  1  26
M  SED  26 [#6&h0]
M  SAL  27  1  27
M  SED  27 [#6&h0]
M  SAL  28  1  28
M  SED  28 [#1&h0]
M  SAL  29  1  29
M  SED  29 [#1&h0]
M  SAL  30  1  30
M  SED  30 [#1&h0]
M  SAL  31  1  31
M  SED  31 [#1&h0]
M  SAL  32  1  32
M  SED  32 [#1&h0]
M  SAL  33  1  33
M  SED  33 [#1&h0]
M  SAL  34  1  34
M  SED  34 [#1&h0]
M  SAL  35  1  35
M  SED  35 [#1&h0]
M  SAL  36  1  36
M  SED  36 [#1&h0]
M  SAL  37  1  37
M  SED  37 [#1&h0]
M  SAL  38  1  38
M  SED  38 [#1&h0]
M  SAL  39  1  39
M  SED  39 [#1&h0]
M  SAL  40  1  40
M  SED  40 [#1&h0]
M  SAL  41  1  41
M  SED  41 [#1&h0]
M  SAL  42  1  42
M  SED  42 [#1&h0]
M  SAL  43  1  43
M  SED  43 [#1&h0]
M  SAL  44  1  44
M  SED  44 [#1&h0]
M  SAL  45  1  45
M  SED  45 [#1&h0]
M  SAL  46  1  46
M  SED  46 [#1&h0]
M  SAL  47  1  47
M  SED  47 [#1&h0]
M  SAL  48  1  48
M  SED  48 [#1&h0]
M  SAL  49  1  49
M  SED  49 [#1&h0]
M  SAL  50  1  50
M  SED  50 [#1&h0]
M  SAL  51  1  51
M  SED  51 [#1&h0]
M  SAL  52  1  52
M  SED  52 [#1&h0]
M  END
>  <Activity>  (1) 
0.01

>  <Mapped(file=2032.csv.activities,property=Cached(PUBCHEM_COMPOUND_CID))>  (1) 
100

>  <MatchIndices>  (1) 
150 

>  <PUBCHEM_ATOM_DEF_STEREO_COUNT>  (1) 
0

>  <PUBCHEM_ATOM_UDEF_STEREO_COUNT>  (1) 
0

>  <PUBCHEM_BONDANNOTATIONS>  (1) 
14  15  8
14  16  8
15  18  8
16  19  8
17  18  8
17  19  8

>  <PUBCHEM_BOND_DEF_STEREO_COUNT>  (1) 
0

>  <PUBCHEM_BOND_UDEF_STEREO_COUNT>  (1) 
0

>  <PUBCHEM_CACTVS_COMPLEXITY>  (1) 
576

>  <PUBCHEM_CACTVS_HBOND_ACCEPTOR>  (1) 
7

>  <PUBCHEM_CACTVS_HBOND_DONOR>  (1) 
2

>  <PUBCHEM_CACTVS_ROTATABLE_BOND>  (1) 
10

>  <PUBCHEM_CACTVS_SUBSKEYS>  (1) 
AAADceB7OABAAAAAAAAAAAAAAAAAAQAAAAAwAAAAAAAAAAABAAAAHgQQAAAADAjh0AYzyILABAioAiTWbACCEAFhAhAJiIEIZMgIJCbIuZGGIAhhsABI6McQAAAAAACAAAAAAAAAAQAAAAAAAAAAAAAAAA==

>  <PUBCHEM_CACTVS_TAUTO_COUNT>  (1) 
6

>  <PUBCHEM_CACTVS_TPSA>  (1) 
114

>  <PUBCHEM_COMPONENT_COUNT>  (1) 
1

>  <PUBCHEM_COMPOUND_CANONICALIZED>  (1) 
1

>  <PUBCHEM_COMPOUND_CID>  (1) 
1830756

>  <PUBCHEM_COORDINATE_TYPE>  (1) 
1
5
255

>  <PUBCHEM_EXACT_MASS>  (1) 
391.156577

>  <PUBCHEM_HEAVY_ATOM_COUNT>  (1) 
27

>  <PUBCHEM_ISOTOPIC_ATOM_COUNT>  (1) 
0

>  <PUBCHEM_IUPAC_CAS_NAME>  (1) 
2-[[4-[(5,5-dimethyl-4H-thiazol-2-yl)amino]anilino]methylidene]propanedioic acid diethyl ester

>  <PUBCHEM_IUPAC_INCHI>  (1) 
InChI=1S/C19H25N3O4S/c1-5-25-16(23)15(17(24)26-6-2)11-20-13-7-9-14(10-8-13)22-18-21-12-19(3,4)27-18/h7-11,20H,5-6,12H2,1-4H3,(H,21,22)

>  <PUBCHEM_IUPAC_INCHIKEY>  (1) 
SQAHNXJEYGFFPV-UHFFFAOYSA-N

>  <PUBCHEM_IUPAC_NAME>  (1) 
diethyl 2-[[4-[(5,5-dimethyl-4H-1,3-thiazol-2-yl)amino]anilino]methylidene]propanedioate

>  <PUBCHEM_IUPAC_OPENEYE_NAME>  (1) 
diethyl 2-[[4-[(5,5-dimethyl-4H-thiazol-2-yl)amino]anilino]methylene]propanedioate

>  <PUBCHEM_IUPAC_SYSTEMATIC_NAME>  (1) 
diethyl 2-[[[4-[(5,5-dimethyl-4H-1,3-thiazol-2-yl)amino]phenyl]amino]methylidene]propanedioate

>  <PUBCHEM_IUPAC_TRADITIONAL_NAME>  (1) 
2-[[4-[(5,5-dimethyl-2-thiazolin-2-yl)amino]anilino]methylene]malonic acid diethyl ester

>  <PUBCHEM_MOLECULAR_FORMULA>  (1) 
C19H25N3O4S

>  <PUBCHEM_MOLECULAR_WEIGHT>  (1) 
391.4845

>  <PUBCHEM_MONOISOTOPIC_WEIGHT>  (1) 
391.156577

>  <PUBCHEM_OPENEYE_CAN_SMILES>  (1) 
CCOC(=O)C(=CNC1=CC=C(C=C1)NC2=NCC(S2)(C)C)C(=O)OCC

>  <PUBCHEM_OPENEYE_ISO_SMILES>  (1) 
CCOC(=O)C(=CNC1=CC=C(C=C1)NC2=NCC(S2)(C)C)C(=O)OCC

>  <PUBCHEM_TOTAL_CHARGE>  (1) 
0

>  <PUBCHEM_XLOGP3_AA>  (1) 
3.7

$$$$
Largest isolated from Written by BCL::WriteToMDL,2234459
     RDKit          2D

 37 38  0 37  0  0  0  0  0  0999 V2000
    1.3187    4.2809    0.0000 Cl  0  0  0  0  0  0  0  0  0  0  0  0
   -0.6661   -0.5213    0.0000 S   0  0  0  0  0  0  0  0  0  0  0  0
    2.1065   -1.6672    0.0000 O   0  0  0  0  0  0  0  0  0  0  0  0
   -1.5801    0.6681    0.0000 O   0  0  0  0  0  0  0  0  0  0  0  0
    0.2480   -1.7106    0.0000 O   0  0  0  0  0  0  0  0  0  0  0  0
   -4.9792    1.1689    0.0000 O   0  0  0  0  0  0  0  0  0  0  0  0
   -1.8554   -1.4353    0.0000 N   0  0  0  0  0  0  0  0  0  0  0  0
    0.5233    0.3928    0.0000 C   0  0  0  0  0  0  0  0  0  0  0  0
    1.9095   -0.1802    0.0000 C   0  0  0  0  0  0  0  0  0  0  0  0
   -3.2416   -0.8624    0.0000 C   0  0  0  0  0  0  0  0  0  0  0  0
    0.3263    1.8798    0.0000 C   0  0  0  0  0  0  0  0  0  0  0  0
    2.9019    2.2209    0.0000 C   0  0  0  0  0  0  0  0  0  0  0  0
    3.0989    0.7339    0.0000 C   0  0  0  0  0  0  0  0  0  0  0  0
    1.5156    2.7939    0.0000 C   0  0  0  0  0  0  0  0  0  0  0  0
   -4.6279   -0.2894    0.0000 C   0  0  0  0  0  0  0  0  0  0  0  0
    4.0912    3.1350    0.0000 C   0  0  0  0  0  0  0  0  0  0  0  0
    3.4927   -2.2401    0.0000 C   0  0  0  0  0  0  0  0  0  0  0  0
   -5.9063   -1.0742    0.0000 C   0  0  0  0  0  0  0  0  0  0  0  0
   -7.0476   -0.1009    0.0000 C   0  0  0  0  0  0  0  0  0  0  0  0
    4.8790   -2.8131    0.0000 C   0  0  0  0  0  0  0  0  0  0  0  0
   -6.4747    1.2854    0.0000 C   0  0  0  0  0  0  0  0  0  0  0  0
   -1.6584   -2.9223    0.0000 H   0  0  0  0  0  0  0  0  0  0  0  0
   -3.8146   -2.2486    0.0000 H   0  0  0  0  0  0  0  0  0  0  0  0
   -2.6687    0.5239    0.0000 H   0  0  0  0  0  0  0  0  0  0  0  0
   -1.0599    2.4528    0.0000 H   0  0  0  0  0  0  0  0  0  0  0  0
    4.4851    0.1610    0.0000 H   0  0  0  0  0  0  0  0  0  0  0  0
    3.1772    4.3243    0.0000 H   0  0  0  0  0  0  0  0  0  0  0  0
    5.0053    1.9457    0.0000 H   0  0  0  0  0  0  0  0  0  0  0  0
    5.2806    4.0490    0.0000 H   0  0  0  0  0  0  0  0  0  0  0  0
    4.0657   -0.8539    0.0000 H   0  0  0  0  0  0  0  0  0  0  0  0
    2.9198   -3.6264    0.0000 H   0  0  0  0  0  0  0  0  0  0  0  0
   -6.0228   -2.5696    0.0000 H   0  0  0  0  0  0  0  0  0  0  0  0
   -8.5059   -0.4522    0.0000 H   0  0  0  0  0  0  0  0  0  0  0  0
    5.4520   -1.4268    0.0000 H   0  0  0  0  0  0  0  0  0  0  0  0
    4.3060   -4.1993    0.0000 H   0  0  0  0  0  0  0  0  0  0  0  0
    6.2653   -3.3860    0.0000 H   0  0  0  0  0  0  0  0  0  0  0  0
   -7.2594    2.5637    0.0000 H   0  0  0  0  0  0  0  0  0  0  0  0
  1 14  1  0
  2  4  2  0
  2  5  2  0
  2  7  1  0
  2  8  1  0
  3  9  1  0
  3 17  1  0
  6 15  1  0
  6 21  1  0
  7 10  1  0
  7 22  1  0
  8  9  2  0
  8 11  1  0
  9 13  1  0
 10 15  1  0
 10 23  1  0
 10 24  1  0
 11 14  2  0
 11 25  1  0
 12 13  2  0
 12 14  1  0
 12 16  1  0
 13 26  1  0
 15 18  2  0
 16 27  1  0
 16 28  1  0
 16 29  1  0
 17 20  1  0
 17 30  1  0
 17 31  1  0
 18 19  1  0
 18 32  1  0
 19 21  2  0
 19 33  1  0
 20 34  1  0
 20 35  1  0
 20 36  1  0
 21 37  1  0
M  STY  8   1 DAT   2 DAT   3 DAT   4 DAT   5 DAT   6 DAT   7 DAT   8 DAT
M  STY  8   9 DAT  10 DAT  11 DAT  12 DAT  13 DAT  14 DAT  15 DAT  16 DAT
M  STY  8  17 DAT  18 DAT  19 DAT  20 DAT  21 DAT  22 DAT  23 DAT  24 DAT
M  STY  8  25 DAT  26 DAT  27 DAT  28 DAT  29 DAT  30 DAT  31 DAT  32 DAT
M  STY  5  33 DAT  34 DAT  35 DAT  36 DAT  37 DAT
M  SAL   1  1   1
M  SED   1 [#17&h0]
M  SAL   2  1   2
M  SED   2 [#16&h0]
M  SAL   3  1   3
M  SED   3 [#8&h0]
M  SAL   4  1   4
M  SED   4 [#8&h0]
M  SAL   5  1   5
M  SED   5 [#8&h0]
M  SAL   6  1   6
M  SED   6 [#8&h0]
M  SAL   7  1   7
M  SED   7 [#7&h0]
M  SAL   8  1   8
M  SED   8 [#6&h0]
M  SAL   9  1   9
M  SED   9 [#6&h0]
M  SAL  10  1  10
M  SED  10 [#6&h0]
M  SAL  11  1  11
M  SED  11 [#6&h0]
M  SAL  12  1  12
M  SED  12 [#6&h0]
M  SAL  13  1  13
M  SED  13 [#6&h0]
M  SAL  14  1  14
M  SED  14 [#6&h0]
M  SAL  15  1  15
M  SED  15 [#6&h0]
M  SAL  16  1  16
M  SED  16 [#6&h0]
M  SAL  17  1  17
M  SED  17 [#6&h0]
M  SAL  18  1  18
M  SED  18 [#6&h0]
M  SAL  19  1  19
M  SED  19 [#6&h0]
M  SAL  20  1  20
M  SED  20 [#6&h0]
M  SAL  21  1  21
M  SED  21 [#6&h0]
M  SAL  22  1  22
M  SED  22 [#1&h0]
M  SAL  23  1  23
M  SED  23 [#1&h0]
M  SAL  24  1  24
M  SED  24 [#1&h0]
M  SAL  25  1  25
M  SED  25 [#1&h0]
M  SAL  26  1  26
M  SED  26 [#1&h0]
M  SAL  27  1  27
M  SED  27 [#1&h0]
M  SAL  28  1  28
M  SED  28 [#1&h0]
M  SAL  29  1  29
M  SED  29 [#1&h0]
M  SAL  30  1  30
M  SED  30 [#1&h0]
M  SAL  31  1  31
M  SED  31 [#1&h0]
M  SAL  32  1  32
M  SED  32 [#1&h0]
M  SAL  33  1  33
M  SED  33 [#1&h0]
M  SAL  34  1  34
M  SED  34 [#1&h0]
M  SAL  35  1  35
M  SED  35 [#1&h0]
M  SAL  36  1  36
M  SED  36 [#1&h0]
M  SAL  37  1  37
M  SED  37 [#1&h0]
M  END
>  <Activity>  (2) 
0.01

>  <Mapped(file=2032.csv.activities,property=Cached(PUBCHEM_COMPOUND_CID))>  (2) 
100

>  <MatchIndices>  (2) 
122 

>  <PUBCHEM_ATOM_DEF_STEREO_COUNT>  (2) 
0

>  <PUBCHEM_ATOM_UDEF_STEREO_COUNT>  (2) 
0

>  <PUBCHEM_BONDANNOTATIONS>  (2) 
11  14  8
12  13  8
12  14  8
15  18  8
18  19  8
19  21  8
6  15  8
6  21  8
8  11  8
8  9  8
9  13  8

>  <PUBCHEM_BOND_DEF_STEREO_COUNT>  (2) 
0

>  <PUBCHEM_BOND_UDEF_STEREO_COUNT>  (2) 
0

>  <PUBCHEM_CACTVS_COMPLEXITY>  (2) 
425

>  <PUBCHEM_CACTVS_HBOND_ACCEPTOR>  (2) 
5

>  <PUBCHEM_CACTVS_HBOND_DONOR>  (2) 
1

>  <PUBCHEM_CACTVS_ROTATABLE_BOND>  (2) 
6

>  <PUBCHEM_CACTVS_SUBSKEYS>  (2) 
AAADceByOABEAAAAAAAAAAAAAAAAASAAAAAwAAAAAAAAAAABwAAAHgYQQAAADAbh2CYyB4BABEKIAqhSgHDCCBAkJQAIiJuGDsgOJjKFtxuDOSDkwBEIqYeY0RAOECABABABIAAgQAIAIAJAAAAAAAAAAA==

>  <PUBCHEM_CACTVS_TAUTO_COUNT>  (2) 
1

>  <PUBCHEM_CACTVS_TPSA>  (2) 
76.9

>  <PUBCHEM_COMPONENT_COUNT>  (2) 
1

>  <PUBCHEM_COMPOUND_CANONICALIZED>  (2) 
1

>  <PUBCHEM_COMPOUND_CID>  (2) 
2234459

>  <PUBCHEM_COORDINATE_TYPE>  (2) 
1
5
255

>  <PUBCHEM_EXACT_MASS>  (2) 
329.048857

>  <PUBCHEM_HEAVY_ATOM_COUNT>  (2) 
21

>  <PUBCHEM_ISOTOPIC_ATOM_COUNT>  (2) 
0

>  <PUBCHEM_IUPAC_CAS_NAME>  (2) 
5-chloro-2-ethoxy-N-(2-furanylmethyl)-4-methylbenzenesulfonamide

>  <PUBCHEM_IUPAC_INCHI>  (2) 
InChI=1S/C14H16ClNO4S/c1-3-19-13-7-10(2)12(15)8-14(13)21(17,18)16-9-11-5-4-6-20-11/h4-8,16H,3,9H2,1-2H3

>  <PUBCHEM_IUPAC_INCHIKEY>  (2) 
WEBFMVQOWCKLEQ-UHFFFAOYSA-N

>  <PUBCHEM_IUPAC_NAME>  (2) 
5-chloro-2-ethoxy-N-(furan-2-ylmethyl)-4-methylbenzenesulfonamide

>  <PUBCHEM_IUPAC_OPENEYE_NAME>  (2) 
5-chloro-2-ethoxy-N-(2-furylmethyl)-4-methyl-benzenesulfonamide

>  <PUBCHEM_IUPAC_SYSTEMATIC_NAME>  (2) 
5-chloranyl-2-ethoxy-N-(furan-2-ylmethyl)-4-methyl-benzenesulfonamide

>  <PUBCHEM_IUPAC_TRADITIONAL_NAME>  (2) 
5-chloro-2-ethoxy-N-(2-furfuryl)-4-methyl-benzenesulfonamide

>  <PUBCHEM_MOLECULAR_FORMULA>  (2) 
C14H16ClNO4S

>  <PUBCHEM_MOLECULAR_WEIGHT>  (2) 
329.79914

>  <PUBCHEM_MONOISOTOPIC_WEIGHT>  (2) 
329.048857

>  <PUBCHEM_OPENEYE_CAN_SMILES>  (2) 
CCOC1=C(C=C(C(=C1)C)Cl)S(=O)(=O)NCC2=CC=CO2

>  <PUBCHEM_OPENEYE_ISO_SMILES>  (2) 
CCOC1=C(C=C(C(=C1)C)Cl)S(=O)(=O)NCC2=CC=CO2

>  <PUBCHEM_TOTAL_CHARGE>  (2) 
0

>  <PUBCHEM_XLOGP3_AA>  (2) 
2.8

$$$$
Largest isolated from Written by BCL::WriteToMDL,20937323
     RDKit          2D

 43 44  0 43  0  0  0  0  0  0999 V2000
   -1.0045   -0.6081    0.0000 S   0  0  0  0  0  0  0  0  0  0  0  0
   -4.8530   -1.1122    0.0000 S   0  0  0  0  0  0  0  0  0  0  0  0
   -1.1007   -2.1050    0.0000 O   0  0  0  0  0  0  0  0  0  0  0  0
   -0.9083    0.8888    0.0000 O   0  0  0  0  0  0  0  0  0  0  0  0
    3.3013   -3.6455    0.0000 O   0  0  0  0  0  0  0  0  0  0  0  0
   -5.6591    2.8210    0.0000 O   0  0  0  0  0  0  0  0  0  0  0  0
    0.4924   -0.7043    0.0000 N   0  0  0  0  0  0  0  0  0  0  0  0
   -7.3179    0.8215    0.0000 N   0  0  0  0  0  0  0  0  0  0  0  0
    2.1560    1.7922    0.0000 C   0  0  0  0  0  0  0  0  0  0  0  0
    1.3242    0.5439    0.0000 C   0  0  0  0  0  0  0  0  0  0  0  0
    2.9878    3.0404    0.0000 C   0  0  0  0  0  0  0  0  0  0  0  0
    1.1575   -2.0488    0.0000 C   0  0  0  0  0  0  0  0  0  0  0  0
    1.7395    3.8722    0.0000 C   0  0  0  0  0  0  0  0  0  0  0  0
    3.8196    4.2886    0.0000 C   0  0  0  0  0  0  0  0  0  0  0  0
   -2.5014   -0.5119    0.0000 C   0  0  0  0  0  0  0  0  0  0  0  0
    1.8226   -3.3933    0.0000 C   0  0  0  0  0  0  0  0  0  0  0  0
   -3.3034    0.7557    0.0000 C   0  0  0  0  0  0  0  0  0  0  0  0
   -3.4591   -1.6663    0.0000 C   0  0  0  0  0  0  0  0  0  0  0  0
    1.1259   -4.7216    0.0000 C   0  0  0  0  0  0  0  0  0  0  0  0
   -4.7568    0.3847    0.0000 C   0  0  0  0  0  0  0  0  0  0  0  0
    2.1739   -5.7948    0.0000 C   0  0  0  0  0  0  0  0  0  0  0  0
    3.5184   -5.1297    0.0000 C   0  0  0  0  0  0  0  0  0  0  0  0
   -5.9113    1.3424    0.0000 C   0  0  0  0  0  0  0  0  0  0  0  0
    1.3645    2.1898    0.0000 H   0  0  0  0  0  0  0  0  0  0  0  0
    3.4042    0.9604    0.0000 H   0  0  0  0  0  0  0  0  0  0  0  0
    2.5724   -0.2879    0.0000 H   0  0  0  0  0  0  0  0  0  0  0  0
    0.0760    1.3757    0.0000 H   0  0  0  0  0  0  0  0  0  0  0  0
    4.2360    2.2086    0.0000 H   0  0  0  0  0  0  0  0  0  0  0  0
    2.5020   -1.3837    0.0000 H   0  0  0  0  0  0  0  0  0  0  0  0
   -0.1870   -2.7139    0.0000 H   0  0  0  0  0  0  0  0  0  0  0  0
    3.1479    4.8660    0.0000 H   0  0  0  0  0  0  0  0  0  0  0  0
    5.0678    3.4569    0.0000 H   0  0  0  0  0  0  0  0  0  0  0  0
    2.1372    4.6636    0.0000 H   0  0  0  0  0  0  0  0  0  0  0  0
    1.1622    3.2005    0.0000 H   0  0  0  0  0  0  0  0  0  0  0  0
    0.4913    4.7040    0.0000 H   0  0  0  0  0  0  0  0  0  0  0  0
    4.6514    5.5369    0.0000 H   0  0  0  0  0  0  0  0  0  0  0  0
   -2.7493    2.1496    0.0000 H   0  0  0  0  0  0  0  0  0  0  0  0
   -3.0881   -3.1197    0.0000 H   0  0  0  0  0  0  0  0  0  0  0  0
   -0.3583   -4.9387    0.0000 H   0  0  0  0  0  0  0  0  0  0  0  0
    1.9217   -7.2734    0.0000 H   0  0  0  0  0  0  0  0  0  0  0  0
    4.8467   -5.8264    0.0000 H   0  0  0  0  0  0  0  0  0  0  0  0
   -8.4724    1.7792    0.0000 H   0  0  0  0  0  0  0  0  0  0  0  0
   -7.5701   -0.6572    0.0000 H   0  0  0  0  0  0  0  0  0  0  0  0
  1  3  2  0
  1  4  2  0
  1  7  1  0
  1 15  1  0
  2 18  1  0
  2 20  1  0
  5 16  1  0
  5 22  1  0
  6 23  2  0
  7 10  1  0
  7 12  1  0
  8 23  1  0
  8 42  1  0
  8 43  1  0
  9 10  1  0
  9 11  1  0
  9 24  1  0
  9 25  1  0
 10 26  1  0
 10 27  1  0
 11 13  1  0
 11 14  1  0
 11 28  1  0
 12 16  1  0
 12 29  1  0
 12 30  1  0
 13 33  1  0
 13 34  1  0
 13 35  1  0
 14 31  1  0
 14 32  1  0
 14 36  1  0
 15 17  1  0
 15 18  2  0
 16 19  2  0
 17 20  2  0
 17 37  1  0
 18 38  1  0
 19 21  1  0
 19 39  1  0
 20 23  1  0
 21 22  2  0
 21 40  1  0
 22 41  1  0
M  STY  8   1 DAT   2 DAT   3 DAT   4 DAT   5 DAT   6 DAT   7 DAT   8 DAT
M  STY  8   9 DAT  10 DAT  11 DAT  12 DAT  13 DAT  14 DAT  15 DAT  16 DAT
M  STY  8  17 DAT  18 DAT  19 DAT  20 DAT  21 DAT  22 DAT  23 DAT  24 DAT
M  STY  8  25 DAT  26 DAT  27 DAT  28 DAT  29 DAT  30 DAT  31 DAT  32 DAT
M  STY  8  33 DAT  34 DAT  35 DAT  36 DAT  37 DAT  38 DAT  39 DAT  40 DAT
M  STY  3  41 DAT  42 DAT  43 DAT
M  SAL   1  1   1
M  SED   1 [#16&h0]
M  SAL   2  1   2
M  SED   2 [#16&h0]
M  SAL   3  1   3
M  SED   3 [#8&h0]
M  SAL   4  1   4
M  SED   4 [#8&h0]
M  SAL   5  1   5
M  SED   5 [#8&h0]
M  SAL   6  1   6
M  SED   6 [#8&h0]
M  SAL   7  1   7
M  SED   7 [#7&h0]
M  SAL   8  1   8
M  SED   8 [#7&h0]
M  SAL   9  1   9
M  SED   9 [#6&h0]
M  SAL  10  1  10
M  SED  10 [#6&h0]
M  SAL  11  1  11
M  SED  11 [#6&h0]
M  SAL  12  1  12
M  SED  12 [#6&h0]
M  SAL  13  1  13
M  SED  13 [#6&h0]
M  SAL  14  1  14
M  SED  14 [#6&h0]
M  SAL  15  1  15
M  SED  15 [#6&h0]
M  SAL  16  1  16
M  SED  16 [#6&h0]
M  SAL  17  1  17
M  SED  17 [#6&h0]
M  SAL  18  1  18
M  SED  18 [#6&h0]
M  SAL  19  1  19
M  SED  19 [#6&h0]
M  SAL  20  1  20
M  SED  20 [#6&h0]
M  SAL  21  1  21
M  SED  21 [#6&h0]
M  SAL  22  1  22
M  SED  22 [#6&h0]
M  SAL  23  1  23
M  SED  23 [#6&h0]
M  SAL  24  1  24
M  SED  24 [#1&h0]
M  SAL  25  1  25
M  SED  25 [#1&h0]
M  SAL  26  1  26
M  SED  26 [#1&h0]
M  SAL  27  1  27
M  SED  27 [#1&h0]
M  SAL  28  1  28
M  SED  28 [#1&h0]
M  SAL  29  1  29
M  SED  29 [#1&h0]
M  SAL  30  1  30
M  SED  30 [#1&h0]
M  SAL  31  1  31
M  SED  31 [#1&h0]
M  SAL  32  1  32
M  SED  32 [#1&h0]
M  SAL  33  1  33
M  SED  33 [#1&h0]
M  SAL  34  1  34
M  SED  34 [#1&h0]
M  SAL  35  1  35
M  SED  35 [#1&h0]
M  SAL  36  1  36
M  SED  36 [#1&h0]
M  SAL  37  1  37
M  SED  37 [#1&h0]
M  SAL  38  1  38
M  SED  38 [#1&h0]
M  SAL  39  1  39
M  SED  39 [#1&h0]
M  SAL  40  1  40
M  SED  40 [#1&h0]
M  SAL  41  1  41
M  SED  41 [#1&h0]
M  SAL  42  1  42
M  SED  42 [#1&h0]
M  SAL  43  1  43
M  SED  43 [#1&h0]
M  END
>  <Activity>  (3) 
0.01

>  <Mapped(file=2032.csv.activities,property=Cached(PUBCHEM_COMPOUND_CID))>  (3) 
100

>  <MatchIndices>  (3) 
146 

>  <PUBCHEM_ATOM_DEF_STEREO_COUNT>  (3) 
0

>  <PUBCHEM_ATOM_UDEF_STEREO_COUNT>  (3) 
0

>  <PUBCHEM_BONDANNOTATIONS>  (3) 
15  17  8
15  18  8
16  19  8
17  20  8
19  21  8
2  18  8
2  20  8
21  22  8
5  16  8
5  22  8

>  <PUBCHEM_BOND_DEF_STEREO_COUNT>  (3) 
0

>  <PUBCHEM_BOND_UDEF_STEREO_COUNT>  (3) 
0

>  <PUBCHEM_CACTVS_COMPLEXITY>  (3) 
504

>  <PUBCHEM_CACTVS_HBOND_ACCEPTOR>  (3) 
6

>  <PUBCHEM_CACTVS_HBOND_DONOR>  (3) 
1

>  <PUBCHEM_CACTVS_ROTATABLE_BOND>  (3) 
8

>  <PUBCHEM_CACTVS_SUBSKEYS>  (3) 
AAADceBzOABgAAAAAAAAAAAAAAAAASJAAAAAAAAAAAAAAAAB4AAAHgQQQAAADQTl0AayBYJABEqMAKlSkHDDCJAkKBBIiBmODMgOJjKktTuHGSjkwBG4qYaYEQIIAAAAAAAAAAAAAAAAAAAAAAAAAAAAAA==

>  <PUBCHEM_CACTVS_TAUTO_COUNT>  (3) 
2

>  <PUBCHEM_CACTVS_TPSA>  (3) 
130

>  <PUBCHEM_COMPONENT_COUNT>  (3) 
1

>  <PUBCHEM_COMPOUND_CANONICALIZED>  (3) 
1

>  <PUBCHEM_COMPOUND_CID>  (3) 
20937323

>  <PUBCHEM_COORDINATE_TYPE>  (3) 
1
5
255

>  <PUBCHEM_EXACT_MASS>  (3) 
356.086449

>  <PUBCHEM_HEAVY_ATOM_COUNT>  (3) 
23

>  <PUBCHEM_ISOTOPIC_ATOM_COUNT>  (3) 
0

>  <PUBCHEM_IUPAC_CAS_NAME>  (3) 
4-[2-furanylmethyl(3-methylbutyl)sulfamoyl]-2-thiophenecarboxamide

>  <PUBCHEM_IUPAC_INCHI>  (3) 
InChI=1S/C15H20N2O4S2/c1-11(2)5-6-17(9-12-4-3-7-21-12)23(19,20)13-8-14(15(16)18)22-10-13/h3-4,7-8,10-11H,5-6,9H2,1-2H3,(H2,16,18)

>  <PUBCHEM_IUPAC_INCHIKEY>  (3) 
PGJVREKOFMVHCC-UHFFFAOYSA-N

>  <PUBCHEM_IUPAC_NAME>  (3) 
4-[furan-2-ylmethyl(3-methylbutyl)sulfamoyl]thiophene-2-carboxamide

>  <PUBCHEM_IUPAC_OPENEYE_NAME>  (3) 
4-[2-furylmethyl(isopentyl)sulfamoyl]thiophene-2-carboxamide

>  <PUBCHEM_IUPAC_SYSTEMATIC_NAME>  (3) 
4-[furan-2-ylmethyl(3-methylbutyl)sulfamoyl]thiophene-2-carboxamide

>  <PUBCHEM_IUPAC_TRADITIONAL_NAME>  (3) 
4-[2-furfuryl(isoamyl)sulfamoyl]thiophene-2-carboxamide

>  <PUBCHEM_MOLECULAR_FORMULA>  (3) 
C15H20N2O4S2

>  <PUBCHEM_MOLECULAR_WEIGHT>  (3) 
356.4603

>  <PUBCHEM_MONOISOTOPIC_WEIGHT>  (3) 
356.086449

>  <PUBCHEM_OPENEYE_CAN_SMILES>  (3) 
CC(C)CCN(CC1=CC=CO1)S(=O)(=O)C2=CSC(=C2)C(=O)N

>  <PUBCHEM_OPENEYE_ISO_SMILES>  (3) 
CC(C)CCN(CC1=CC=CO1)S(=O)(=O)C2=CSC(=C2)C(=O)N

>  <PUBCHEM_TOTAL_CHARGE>  (3) 
0

>  <PUBCHEM_XLOGP3_AA>  (3) 
2.2

$$$$
Largest isolated from Written by BCL::WriteToMDL,933649
     RDKit          2D

 47 48  0 47  0  0  0  0  0  0999 V2000
    3.7828    2.1436    0.0000 S   0  0  0  0  0  0  0  0  0  0  0  0
   -6.7891    0.6162    0.0000 O   0  0  0  0  0  0  0  0  0  0  0  0
    1.1105    2.0831    0.0000 O   0  0  0  0  0  0  0  0  0  0  0  0
   -4.9666   -0.4043    0.0000 O   0  0  0  0  0  0  0  0  0  0  0  0
   -4.3853    1.6019    0.0000 N   0  0  0  0  0  0  0  0  0  0  0  0
    0.7852   -0.3220    0.0000 N   0  0  0  0  0  0  0  0  0  0  0  0
    2.2610   -0.0539    0.0000 N   0  0  0  0  0  0  0  0  0  0  0  0
   -7.7065   -0.5706    0.0000 C   0  0  0  0  0  0  0  0  0  0  0  0
   -8.8932    0.3468    0.0000 C   0  0  0  0  0  0  0  0  0  0  0  0
   -6.5197   -1.4879    0.0000 C   0  0  0  0  0  0  0  0  0  0  0  0
   -8.6238   -1.7573    0.0000 C   0  0  0  0  0  0  0  0  0  0  0  0
   -2.8988    1.4009    0.0000 C   0  0  0  0  0  0  0  0  0  0  0  0
   -1.4124    1.1998    0.0000 C   0  0  0  0  0  0  0  0  0  0  0  0
   -5.3026    0.4152    0.0000 C   0  0  0  0  0  0  0  0  0  0  0  0
    0.0741    0.9987    0.0000 C   0  0  0  0  0  0  0  0  0  0  0  0
    6.3352    0.5671    0.0000 C   0  0  0  0  0  0  0  0  0  0  0  0
    5.0590    1.3553    0.0000 C   0  0  0  0  0  0  0  0  0  0  0  0
    8.8875   -1.0095    0.0000 C   0  0  0  0  0  0  0  0  0  0  0  0
    6.2906   -0.9323    0.0000 C   0  0  0  0  0  0  0  0  0  0  0  0
    7.6559    1.2781    0.0000 C   0  0  0  0  0  0  0  0  0  0  0  0
    7.5668   -1.7206    0.0000 C   0  0  0  0  0  0  0  0  0  0  0  0
    8.9321    0.4898    0.0000 C   0  0  0  0  0  0  0  0  0  0  0  0
    2.4621    1.4326    0.0000 C   0  0  0  0  0  0  0  0  0  0  0  0
   10.1637   -1.7978    0.0000 C   0  0  0  0  0  0  0  0  0  0  0  0
   -9.5163   -0.2827    0.0000 H   0  0  0  0  0  0  0  0  0  0  0  0
   -7.9759    1.5336    0.0000 H   0  0  0  0  0  0  0  0  0  0  0  0
  -10.0800    1.2642    0.0000 H   0  0  0  0  0  0  0  0  0  0  0  0
   -6.9719   -2.2495    0.0000 H   0  0  0  0  0  0  0  0  0  0  0  0
   -5.8245   -0.9390    0.0000 H   0  0  0  0  0  0  0  0  0  0  0  0
   -5.3329   -2.4053    0.0000 H   0  0  0  0  0  0  0  0  0  0  0  0
   -7.9943   -2.3804    0.0000 H   0  0  0  0  0  0  0  0  0  0  0  0
   -9.3854   -1.3051    0.0000 H   0  0  0  0  0  0  0  0  0  0  0  0
   -9.5412   -2.9441    0.0000 H   0  0  0  0  0  0  0  0  0  0  0  0
   -2.6977    2.8873    0.0000 H   0  0  0  0  0  0  0  0  0  0  0  0
   -3.0999   -0.0856    0.0000 H   0  0  0  0  0  0  0  0  0  0  0  0
   -1.2113    2.6863    0.0000 H   0  0  0  0  0  0  0  0  0  0  0  0
   -1.6134   -0.2867    0.0000 H   0  0  0  0  0  0  0  0  0  0  0  0
   -4.9544    2.9898    0.0000 H   0  0  0  0  0  0  0  0  0  0  0  0
    4.2707    0.0792    0.0000 H   0  0  0  0  0  0  0  0  0  0  0  0
    5.8473    2.6315    0.0000 H   0  0  0  0  0  0  0  0  0  0  0  0
    4.9698   -1.6433    0.0000 H   0  0  0  0  0  0  0  0  0  0  0  0
    7.7005    2.7775    0.0000 H   0  0  0  0  0  0  0  0  0  0  0  0
    7.5222   -3.2199    0.0000 H   0  0  0  0  0  0  0  0  0  0  0  0
   10.2529    1.2009    0.0000 H   0  0  0  0  0  0  0  0  0  0  0  0
    9.3754   -3.0740    0.0000 H   0  0  0  0  0  0  0  0  0  0  0  0
   10.9520   -0.5216    0.0000 H   0  0  0  0  0  0  0  0  0  0  0  0
   11.4399   -2.5861    0.0000 H   0  0  0  0  0  0  0  0  0  0  0  0
  1 17  1  0
  1 23  1  0
  2  8  1  0
  2 14  1  0
  3 15  1  0
  3 23  1  0
  4 14  2  0
  5 12  1  0
  5 14  1  0
  5 38  1  0
  6  7  1  0
  6 15  2  0
  7 23  2  0
  8  9  1  0
  8 10  1  0
  8 11  1  0
  9 25  1  0
  9 26  1  0
  9 27  1  0
 10 28  1  0
 10 29  1  0
 10 30  1  0
 11 31  1  0
 11 32  1  0
 11 33  1  0
 12 13  1  0
 12 34  1  0
 12 35  1  0
 13 15  1  0
 13 36  1  0
 13 37  1  0
 16 17  1  0
 16 19  2  0
 16 20  1  0
 17 39  1  0
 17 40  1  0
 18 21  2  0
 18 22  1  0
 18 24  1  0
 19 21  1  0
 19 41  1  0
 20 22  2  0
 20 42  1  0
 21 43  1  0
 22 44  1  0
 24 45  1  0
 24 46  1  0
 24 47  1  0
M  STY  8   1 DAT   2 DAT   3 DAT   4 DAT   5 DAT   6 DAT   7 DAT   8 DAT
M  STY  8   9 DAT  10 DAT  11 DAT  12 DAT  13 DAT  14 DAT  15 DAT  16 DAT
M  STY  8  17 DAT  18 DAT  19 DAT  20 DAT  21 DAT  22 DAT  23 DAT  24 DAT
M  STY  8  25 DAT  26 DAT  27 DAT  28 DAT  29 DAT  30 DAT  31 DAT  32 DAT
M  STY  8  33 DAT  34 DAT  35 DAT  36 DAT  37 DAT  38 DAT  39 DAT  40 DAT
M  STY  7  41 DAT  42 DAT  43 DAT  44 DAT  45 DAT  46 DAT  47 DAT
M  SAL   1  1   1
M  SED   1 [#16&h0]
M  SAL   2  1   2
M  SED   2 [#8&h0]
M  SAL   3  1   3
M  SED   3 [#8&h0]
M  SAL   4  1   4
M  SED   4 [#8&h0]
M  SAL   5  1   5
M  SED   5 [#7&h0]
M  SAL   6  1   6
M  SED   6 [#7&h0]
M  SAL   7  1   7
M  SED   7 [#7&h0]
M  SAL   8  1   8
M  SED   8 [#6&h0]
M  SAL   9  1   9
M  SED   9 [#6&h0]
M  SAL  10  1  10
M  SED  10 [#6&h0]
M  SAL  11  1  11
M  SED  11 [#6&h0]
M  SAL  12  1  12
M  SED  12 [#6&h0]
M  SAL  13  1  13
M  SED  13 [#6&h0]
M  SAL  14  1  14
M  SED  14 [#6&h0]
M  SAL  15  1  15
M  SED  15 [#6&h0]
M  SAL  16  1  16
M  SED  16 [#6&h0]
M  SAL  17  1  17
M  SED  17 [#6&h0]
M  SAL  18  1  18
M  SED  18 [#6&h0]
M  SAL  19  1  19
M  SED  19 [#6&h0]
M  SAL  20  1  20
M  SED  20 [#6&h0]
M  SAL  21  1  21
M  SED  21 [#6&h0]
M  SAL  22  1  22
M  SED  22 [#6&h0]
M  SAL  23  1  23
M  SED  23 [#6&h0]
M  SAL  24  1  24
M  SED  24 [#6&h0]
M  SAL  25  1  25
M  SED  25 [#1&h0]
M  SAL  26  1  26
M  SED  26 [#1&h0]
M  SAL  27  1  27
M  SED  27 [#1&h0]
M  SAL  28  1  28
M  SED  28 [#1&h0]
M  SAL  29  1  29
M  SED  29 [#1&h0]
M  SAL  30  1  30
M  SED  30 [#1&h0]
M  SAL  31  1  31
M  SED  31 [#1&h0]
M  SAL  32  1  32
M  SED  32 [#1&h0]
M  SAL  33  1  33
M  SED  33 [#1&h0]
M  SAL  34  1  34
M  SED  34 [#1&h0]
M  SAL  35  1  35
M  SED  35 [#1&h0]
M  SAL  36  1  36
M  SED  36 [#1&h0]
M  SAL  37  1  37
M  SED  37 [#1&h0]
M  SAL  38  1  38
M  SED  38 [#1&h0]
M  SAL  39  1  39
M  SED  39 [#1&h0]
M  SAL  40  1  40
M  SED  40 [#1&h0]
M  SAL  41  1  41
M  SED  41 [#1&h0]
M  SAL  42  1  42
M  SED  42 [#1&h0]
M  SAL  43  1  43
M  SED  43 [#1&h0]
M  SAL  44  1  44
M  SED  44 [#1&h0]
M  SAL  45  1  45
M  SED  45 [#1&h0]
M  SAL  46  1  46
M  SED  46 [#1&h0]
M  SAL  47  1  47
M  SED  47 [#1&h0]
M  END
>  <Activity>  (4) 
0.01

>  <Mapped(file=2032.csv.activities,property=Cached(PUBCHEM_COMPOUND_CID))>  (4) 
100

>  <MatchIndices>  (4) 
33 

>  <PUBCHEM_ATOM_DEF_STEREO_COUNT>  (4) 
0

>  <PUBCHEM_ATOM_UDEF_STEREO_COUNT>  (4) 
0

>  <PUBCHEM_BONDANNOTATIONS>  (4) 
16  19  8
16  20  8
18  21  8
18  22  8
19  21  8
20  22  8
3  15  8
3  23  8
6  15  8
6  7  8
7  23  8

>  <PUBCHEM_BOND_DEF_STEREO_COUNT>  (4) 
0

>  <PUBCHEM_BOND_UDEF_STEREO_COUNT>  (4) 
0

>  <PUBCHEM_CACTVS_COMPLEXITY>  (4) 
395

>  <PUBCHEM_CACTVS_HBOND_ACCEPTOR>  (4) 
4

>  <PUBCHEM_CACTVS_HBOND_DONOR>  (4) 
1

>  <PUBCHEM_CACTVS_ROTATABLE_BOND>  (4) 
8

>  <PUBCHEM_CACTVS_SUBSKEYS>  (4) 
AAADceB7MABAAAAAAAAAAAAAAAAAAWAAAAAwAAAAAAAAAAABwAAAHgQYAAAADETF2gSyCILABEiqAiFyGAASAABoABAaiIE4AIkIICqgURCMIAAingAIiAcAgAAOQAAAAAAAAACAAAAAAAAAAAAAAAAAAA==

>  <PUBCHEM_CACTVS_TAUTO_COUNT>  (4) 
2

>  <PUBCHEM_CACTVS_TPSA>  (4) 
103

>  <PUBCHEM_COMPONENT_COUNT>  (4) 
1

>  <PUBCHEM_COMPOUND_CANONICALIZED>  (4) 
1

>  <PUBCHEM_COMPOUND_CID>  (4) 
933649

>  <PUBCHEM_COORDINATE_TYPE>  (4) 
1
5
255

>  <PUBCHEM_EXACT_MASS>  (4) 
349.146013

>  <PUBCHEM_HEAVY_ATOM_COUNT>  (4) 
24

>  <PUBCHEM_ISOTOPIC_ATOM_COUNT>  (4) 
0

>  <PUBCHEM_IUPAC_CAS_NAME>  (4) 
N-[2-[5-[(4-methylphenyl)methylthio]-1,3,4-oxadiazol-2-yl]ethyl]carbamic acid tert-butyl ester

>  <PUBCHEM_IUPAC_INCHI>  (4) 
InChI=1S/C17H23N3O3S/c1-12-5-7-13(8-6-12)11-24-16-20-19-14(22-16)9-10-18-15(21)23-17(2,3)4/h5-8H,9-11H2,1-4H3,(H,18,21)

>  <PUBCHEM_IUPAC_INCHIKEY>  (4) 
VPRHBGRMVPOWOV-UHFFFAOYSA-N

>  <PUBCHEM_IUPAC_NAME>  (4) 
tert-butyl N-[2-[5-[(4-methylphenyl)methylsulfanyl]-1,3,4-oxadiazol-2-yl]ethyl]carbamate

>  <PUBCHEM_IUPAC_OPENEYE_NAME>  (4) 
tert-butyl N-[2-[5-(p-tolylmethylsulfanyl)-1,3,4-oxadiazol-2-yl]ethyl]carbamate

>  <PUBCHEM_IUPAC_SYSTEMATIC_NAME>  (4) 
tert-butyl N-[2-[5-[(4-methylphenyl)methylsulfanyl]-1,3,4-oxadiazol-2-yl]ethyl]carbamate

>  <PUBCHEM_IUPAC_TRADITIONAL_NAME>  (4) 
N-[2-[5-[(4-methylbenzyl)thio]-1,3,4-oxadiazol-2-yl]ethyl]carbamic acid tert-butyl ester

>  <PUBCHEM_MOLECULAR_FORMULA>  (4) 
C17H23N3O3S

>  <PUBCHEM_MOLECULAR_WEIGHT>  (4) 
349.44782

>  <PUBCHEM_MONOISOTOPIC_WEIGHT>  (4) 
349.146013

>  <PUBCHEM_OPENEYE_CAN_SMILES>  (4) 
CC1=CC=C(C=C1)CSC2=NN=C(O2)CCNC(=O)OC(C)(C)C

>  <PUBCHEM_OPENEYE_ISO_SMILES>  (4) 
CC1=CC=C(C=C1)CSC2=NN=C(O2)CCNC(=O)OC(C)(C)C

>  <PUBCHEM_TOTAL_CHARGE>  (4) 
0

>  <PUBCHEM_XLOGP3_AA>  (4) 
3.5

$$$$
Largest isolated from Written by BCL::WriteToMDL,2930814
     RDKit          2D

 38 39  0 38  0  0  0  0  0  0999 V2000
    4.4422    3.9001    0.0000 Br  0  0  0  0  0  0  0  0  0  0  0  0
    0.5391    0.4699    0.0000 S   0  0  0  0  0  0  0  0  0  0  0  0
   -3.8735   -0.4126    0.0000 O   0  0  0  0  0  0  0  0  0  0  0  0
    0.4264    1.9657    0.0000 O   0  0  0  0  0  0  0  0  0  0  0  0
    1.0103   -0.9541    0.0000 O   0  0  0  0  0  0  0  0  0  0  0  0
    2.5195   -1.7835    0.0000 O   0  0  0  0  0  0  0  0  0  0  0  0
   -0.9318    0.1758    0.0000 N   0  0  0  0  0  0  0  0  0  0  0  0
   -1.9220    1.3025    0.0000 C   0  0  0  0  0  0  0  0  0  0  0  0
   -1.4125   -1.2451    0.0000 C   0  0  0  0  0  0  0  0  0  0  0  0
   -3.3929    1.0083    0.0000 C   0  0  0  0  0  0  0  0  0  0  0  0
   -2.8833   -1.5393    0.0000 C   0  0  0  0  0  0  0  0  0  0  0  0
   -4.1649   -2.3188    0.0000 C   0  0  0  0  0  0  0  0  0  0  0  0
   -3.4272    2.5079    0.0000 C   0  0  0  0  0  0  0  0  0  0  0  0
    2.0099    0.7641    0.0000 C   0  0  0  0  0  0  0  0  0  0  0  0
    3.0001   -0.3626    0.0000 C   0  0  0  0  0  0  0  0  0  0  0  0
    2.4906    2.1850    0.0000 C   0  0  0  0  0  0  0  0  0  0  0  0
    4.4710   -0.0685    0.0000 C   0  0  0  0  0  0  0  0  0  0  0  0
    3.9615    2.4792    0.0000 C   0  0  0  0  0  0  0  0  0  0  0  0
    4.9517    1.3524    0.0000 C   0  0  0  0  0  0  0  0  0  0  0  0
    3.5097   -2.9102    0.0000 C   0  0  0  0  0  0  0  0  0  0  0  0
   -2.1190    2.0749    0.0000 H   0  0  0  0  0  0  0  0  0  0  0  0
   -0.7450    2.2324    0.0000 H   0  0  0  0  0  0  0  0  0  0  0  0
    0.0316   -1.6508    0.0000 H   0  0  0  0  0  0  0  0  0  0  0  0
   -1.3782   -2.7447    0.0000 H   0  0  0  0  0  0  0  0  0  0  0  0
   -4.8756    1.2349    0.0000 H   0  0  0  0  0  0  0  0  0  0  0  0
   -2.3382   -2.9368    0.0000 H   0  0  0  0  0  0  0  0  0  0  0  0
   -4.9444   -1.0373    0.0000 H   0  0  0  0  0  0  0  0  0  0  0  0
   -3.3854   -3.6004    0.0000 H   0  0  0  0  0  0  0  0  0  0  0  0
   -5.4465   -3.0983    0.0000 H   0  0  0  0  0  0  0  0  0  0  0  0
   -4.9268    2.4736    0.0000 H   0  0  0  0  0  0  0  0  0  0  0  0
   -2.6384    2.6232    0.0000 H   0  0  0  0  0  0  0  0  0  0  0  0
   -3.4614    4.0075    0.0000 H   0  0  0  0  0  0  0  0  0  0  0  0
    1.5004    3.3117    0.0000 H   0  0  0  0  0  0  0  0  0  0  0  0
    5.4612   -1.1952    0.0000 H   0  0  0  0  0  0  0  0  0  0  0  0
    6.4226    1.6466    0.0000 H   0  0  0  0  0  0  0  0  0  0  0  0
    2.3829   -3.9004    0.0000 H   0  0  0  0  0  0  0  0  0  0  0  0
    4.6364   -1.9201    0.0000 H   0  0  0  0  0  0  0  0  0  0  0  0
    4.4999   -4.0370    0.0000 H   0  0  0  0  0  0  0  0  0  0  0  0
  1 18  1  0
  2  4  2  0
  2  5  2  0
  2  7  1  0
  2 14  1  0
  3 10  1  0
  3 11  1  0
  6 15  1  0
  6 20  1  0
  7  8  1  0
  7  9  1  0
  8 10  1  0
  8 21  1  0
  8 22  1  0
  9 11  1  0
  9 23  1  0
  9 24  1  0
 10 13  1  0
 10 25  1  1
 11 12  1  0
 11 26  1  6
 12 27  1  0
 12 28  1  0
 12 29  1  0
 13 30  1  0
 13 31  1  0
 13 32  1  0
 14 15  2  0
 14 16  1  0
 15 17  1  0
 16 18  2  0
 16 33  1  0
 17 19  2  0
 17 34  1  0
 18 19  1  0
 19 35  1  0
 20 36  1  0
 20 37  1  0
 20 38  1  0
M  STY  8   1 DAT   2 DAT   3 DAT   4 DAT   5 DAT   6 DAT   7 DAT   8 DAT
M  STY  8   9 DAT  10 DAT  11 DAT  12 DAT  13 DAT  14 DAT  15 DAT  16 DAT
M  STY  8  17 DAT  18 DAT  19 DAT  20 DAT  21 DAT  22 DAT  23 DAT  24 DAT
M  STY  8  25 DAT  26 DAT  27 DAT  28 DAT  29 DAT  30 DAT  31 DAT  32 DAT
M  STY  6  33 DAT  34 DAT  35 DAT  36 DAT  37 DAT  38 DAT
M  SAL   1  1   1
M  SED   1 [#35&h0]
M  SAL   2  1   2
M  SED   2 [#16&h0]
M  SAL   3  1   3
M  SED   3 [#8&h0]
M  SAL   4  1   4
M  SED   4 [#8&h0]
M  SAL   5  1   5
M  SED   5 [#8&h0]
M  SAL   6  1   6
M  SED   6 [#8&h0]
M  SAL   7  1   7
M  SED   7 [#7&h0]
M  SAL   8  1   8
M  SED   8 [#6&h0]
M  SAL   9  1   9
M  SED   9 [#6&h0]
M  SAL  10  1  10
M  SED  10 [#6&h0]
M  SAL  11  1  11
M  SED  11 [#6&h0]
M  SAL  12  1  12
M  SED  12 [#6&h0]
M  SAL  13  1  13
M  SED  13 [#6&h0]
M  SAL  14  1  14
M  SED  14 [#6&h0]
M  SAL  15  1  15
M  SED  15 [#6&h0]
M  SAL  16  1  16
M  SED  16 [#6&h0]
M  SAL  17  1  17
M  SED  17 [#6&h0]
M  SAL  18  1  18
M  SED  18 [#6&h0]
M  SAL  19  1  19
M  SED  19 [#6&h0]
M  SAL  20  1  20
M  SED  20 [#6&h0]
M  SAL  21  1  21
M  SED  21 [#1&h0]
M  SAL  22  1  22
M  SED  22 [#1&h0]
M  SAL  23  1  23
M  SED  23 [#1&h0]
M  SAL  24  1  24
M  SED  24 [#1&h0]
M  SAL  25  1  25
M  SED  25 [#1&h0]
M  SAL  26  1  26
M  SED  26 [#1&h0]
M  SAL  27  1  27
M  SED  27 [#1&h0]
M  SAL  28  1  28
M  SED  28 [#1&h0]
M  SAL  29  1  29
M  SED  29 [#1&h0]
M  SAL  30  1  30
M  SED  30 [#1&h0]
M  SAL  31  1  31
M  SED  31 [#1&h0]
M  SAL  32  1  32
M  SED  32 [#1&h0]
M  SAL  33  1  33
M  SED  33 [#1&h0]
M  SAL  34  1  34
M  SED  34 [#1&h0]
M  SAL  35  1  35
M  SED  35 [#1&h0]
M  SAL  36  1  36
M  SED  36 [#1&h0]
M  SAL  37  1  37
M  SED  37 [#1&h0]
M  SAL  38  1  38
M  SED  38 [#1&h0]
M  END
>  <Activity>  (5) 
0.01

>  <Mapped(file=2032.csv.activities,property=Cached(PUBCHEM_COMPOUND_CID))>  (5) 
100

>  <MatchIndices>  (5) 
131 

>  <PUBCHEM_ATOM_DEF_STEREO_COUNT>  (5) 
0

>  <PUBCHEM_ATOM_UDEF_STEREO_COUNT>  (5) 
2

>  <PUBCHEM_BONDANNOTATIONS>  (5) 
10  25  3
11  26  3
14  15  8
14  16  8
15  17  8
16  18  8
17  19  8
18  19  8

>  <PUBCHEM_BOND_DEF_STEREO_COUNT>  (5) 
0

>  <PUBCHEM_BOND_UDEF_STEREO_COUNT>  (5) 
0

>  <PUBCHEM_CACTVS_COMPLEXITY>  (5) 
415

>  <PUBCHEM_CACTVS_HBOND_ACCEPTOR>  (5) 
5

>  <PUBCHEM_CACTVS_HBOND_DONOR>  (5) 
0

>  <PUBCHEM_CACTVS_ROTATABLE_BOND>  (5) 
3

>  <PUBCHEM_CACTVS_SUBSKEYS>  (5) 
AAADceByOABAEAAAAAAAAAAAAAAAAAAAAAA8QAAAAAAAAAABAAAAHgRAQAABqBTh0AYyB4IABAKAACBCAHBCCBAgIAQIiBoOCKgOJiKEMRqHMCAkwBGYqheAQAAAABAAAAgAIAAAIAAAEABAAAAAAAAAAA==

>  <PUBCHEM_CACTVS_TAUTO_COUNT>  (5) 
1

>  <PUBCHEM_CACTVS_TPSA>  (5) 
64.2

>  <PUBCHEM_COMPONENT_COUNT>  (5) 
1

>  <PUBCHEM_COMPOUND_CANONICALIZED>  (5) 
1

>  <PUBCHEM_COMPOUND_CID>  (5) 
2930814

>  <PUBCHEM_COORDINATE_TYPE>  (5) 
1
5
255

>  <PUBCHEM_EXACT_MASS>  (5) 
363.013991

>  <PUBCHEM_HEAVY_ATOM_COUNT>  (5) 
20

>  <PUBCHEM_ISOTOPIC_ATOM_COUNT>  (5) 
0

>  <PUBCHEM_IUPAC_CAS_NAME>  (5) 
4-(5-bromo-2-methoxyphenyl)sulfonyl-2,6-dimethylmorpholine

>  <PUBCHEM_IUPAC_INCHI>  (5) 
InChI=1S/C13H18BrNO4S/c1-9-7-15(8-10(2)19-9)20(16,17)13-6-11(14)4-5-12(13)18-3/h4-6,9-10H,7-8H2,1-3H3

>  <PUBCHEM_IUPAC_INCHIKEY>  (5) 
KEZRPKKNAHONOX-UHFFFAOYSA-N

>  <PUBCHEM_IUPAC_NAME>  (5) 
4-(5-bromo-2-methoxyphenyl)sulfonyl-2,6-dimethylmorpholine

>  <PUBCHEM_IUPAC_OPENEYE_NAME>  (5) 
4-(5-bromo-2-methoxy-phenyl)sulfonyl-2,6-dimethyl-morpholine

>  <PUBCHEM_IUPAC_SYSTEMATIC_NAME>  (5) 
4-(5-bromanyl-2-methoxy-phenyl)sulfonyl-2,6-dimethyl-morpholine

>  <PUBCHEM_IUPAC_TRADITIONAL_NAME>  (5) 
4-(5-bromo-2-methoxy-phenyl)sulfonyl-2,6-dimethyl-morpholine

>  <PUBCHEM_MOLECULAR_FORMULA>  (5) 
C13H18BrNO4S

>  <PUBCHEM_MOLECULAR_WEIGHT>  (5) 
364.25532

>  <PUBCHEM_MONOISOTOPIC_WEIGHT>  (5) 
363.013991

>  <PUBCHEM_OPENEYE_CAN_SMILES>  (5) 
CC1CN(CC(O1)C)S(=O)(=O)C2=C(C=CC(=C2)Br)OC

>  <PUBCHEM_OPENEYE_ISO_SMILES>  (5) 
CC1CN(CC(O1)C)S(=O)(=O)C2=C(C=CC(=C2)Br)OC

>  <PUBCHEM_TOTAL_CHARGE>  (5) 
0

>  <PUBCHEM_XLOGP3_AA>  (5) 
2.2

$$$$
Largest isolated from Written by BCL::WriteToMDL,3724094
     RDKit          2D

 43 46  0 43  0  0  0  0  0  0999 V2000
    3.7628   -2.1643    0.0000 O   0  0  0  0  0  0  0  0  0  0  0  0
   -2.5234   -0.1707    0.0000 N   0  0  0  0  0  0  0  0  0  0  0  0
   -5.5004   -0.5413    0.0000 N   0  0  0  0  0  0  0  0  0  0  0  0
   -0.1302   -1.1818    0.0000 N   0  0  0  0  0  0  0  0  0  0  0  0
   -2.2605    3.7892    0.0000 N   0  0  0  0  0  0  0  0  0  0  0  0
    1.0374    1.5816    0.0000 C   0  0  0  0  0  0  0  0  0  0  0  0
    1.9421    0.3852    0.0000 C   0  0  0  0  0  0  0  0  0  0  0  0
    1.6212    2.9634    0.0000 C   0  0  0  0  0  0  0  0  0  0  0  0
    3.4306    0.5705    0.0000 C   0  0  0  0  0  0  0  0  0  0  0  0
    3.1097    3.1487    0.0000 C   0  0  0  0  0  0  0  0  0  0  0  0
    4.0144    1.9522    0.0000 C   0  0  0  0  0  0  0  0  0  0  0  0
   -1.0349    0.0146    0.0000 C   0  0  0  0  0  0  0  0  0  0  0  0
   -3.4281    1.0258    0.0000 C   0  0  0  0  0  0  0  0  0  0  0  0
   -3.1072   -1.5524    0.0000 C   0  0  0  0  0  0  0  0  0  0  0  0
   -0.4511    1.3964    0.0000 C   0  0  0  0  0  0  0  0  0  0  0  0
    1.3584   -0.9965    0.0000 C   0  0  0  0  0  0  0  0  0  0  0  0
   -4.9166    0.8405    0.0000 C   0  0  0  0  0  0  0  0  0  0  0  0
   -4.5957   -1.7377    0.0000 C   0  0  0  0  0  0  0  0  0  0  0  0
    2.2631   -2.1930    0.0000 C   0  0  0  0  0  0  0  0  0  0  0  0
   -1.3558    2.5928    0.0000 C   0  0  0  0  0  0  0  0  0  0  0  0
    1.8269   -3.6282    0.0000 C   0  0  0  0  0  0  0  0  0  0  0  0
    3.0571   -4.4865    0.0000 C   0  0  0  0  0  0  0  0  0  0  0  0
    4.2535   -3.5817    0.0000 C   0  0  0  0  0  0  0  0  0  0  0  0
    1.6972    4.4615    0.0000 H   0  0  0  0  0  0  0  0  0  0  0  0
    0.1591    3.2984    0.0000 H   0  0  0  0  0  0  0  0  0  0  0  0
    3.3546   -0.9276    0.0000 H   0  0  0  0  0  0  0  0  0  0  0  0
    4.8928    0.2355    0.0000 H   0  0  0  0  0  0  0  0  0  0  0  0
    4.4451    3.8319    0.0000 H   0  0  0  0  0  0  0  0  0  0  0  0
    2.6688    4.5824    0.0000 H   0  0  0  0  0  0  0  0  0  0  0  0
    5.2738    1.1374    0.0000 H   0  0  0  0  0  0  0  0  0  0  0  0
    5.0356    3.0510    0.0000 H   0  0  0  0  0  0  0  0  0  0  0  0
   -1.6451   -1.8874    0.0000 H   0  0  0  0  0  0  0  0  0  0  0  0
   -3.8691    2.4595    0.0000 H   0  0  0  0  0  0  0  0  0  0  0  0
   -2.0928    1.7090    0.0000 H   0  0  0  0  0  0  0  0  0  0  0  0
   -3.1832   -3.0505    0.0000 H   0  0  0  0  0  0  0  0  0  0  0  0
   -6.3787    1.1755    0.0000 H   0  0  0  0  0  0  0  0  0  0  0  0
   -4.8406    2.3385    0.0000 H   0  0  0  0  0  0  0  0  0  0  0  0
   -4.1547   -3.1714    0.0000 H   0  0  0  0  0  0  0  0  0  0  0  0
   -5.9311   -2.4209    0.0000 H   0  0  0  0  0  0  0  0  0  0  0  0
   -6.9889   -0.7266    0.0000 H   0  0  0  0  0  0  0  0  0  0  0  0
    0.4095   -4.1189    0.0000 H   0  0  0  0  0  0  0  0  0  0  0  0
    3.0858   -5.9862    0.0000 H   0  0  0  0  0  0  0  0  0  0  0  0
    5.6887   -4.0179    0.0000 H   0  0  0  0  0  0  0  0  0  0  0  0
  1 19  1  0
  1 23  1  0
  2 12  1  0
  2 13  1  0
  2 14  1  0
  3 17  1  0
  3 18  1  0
  3 40  1  0
  4 12  2  0
  4 16  1  0
  5 20  3  0
  6  7  1  0
  6  8  1  0
  6 15  2  0
  7  9  1  0
  7 16  2  0
  8 10  1  0
  8 24  1  0
  8 25  1  0
  9 11  1  0
  9 26  1  0
  9 27  1  0
 10 11  1  0
 10 28  1  0
 10 29  1  0
 11 30  1  0
 11 31  1  0
 12 15  1  0
 13 17  1  0
 13 33  1  0
 13 34  1  0
 14 18  1  0
 14 32  1  0
 14 35  1  0
 15 20  1  0
 16 19  1  0
 17 36  1  0
 17 37  1  0
 18 38  1  0
 18 39  1  0
 19 21  2  0
 21 22  1  0
 21 41  1  0
 22 23  2  0
 22 42  1  0
 23 43  1  0
M  STY  8   1 DAT   2 DAT   3 DAT   4 DAT   5 DAT   6 DAT   7 DAT   8 DAT
M  STY  8   9 DAT  10 DAT  11 DAT  12 DAT  13 DAT  14 DAT  15 DAT  16 DAT
M  STY  8  17 DAT  18 DAT  19 DAT  20 DAT  21 DAT  22 DAT  23 DAT  24 DAT
M  STY  8  25 DAT  26 DAT  27 DAT  28 DAT  29 DAT  30 DAT  31 DAT  32 DAT
M  STY  8  33 DAT  34 DAT  35 DAT  36 DAT  37 DAT  38 DAT  39 DAT  40 DAT
M  STY  3  41 DAT  42 DAT  43 DAT
M  SAL   1  1   1
M  SED   1 [#8&h0]
M  SAL   2  1   2
M  SED   2 [#7&h0]
M  SAL   3  1   3
M  SED   3 [#7&h0]
M  SAL   4  1   4
M  SED   4 [#7&h0]
M  SAL   5  1   5
M  SED   5 [#7&h0]
M  SAL   6  1   6
M  SED   6 [#6&h0]
M  SAL   7  1   7
M  SED   7 [#6&h0]
M  SAL   8  1   8
M  SED   8 [#6&h0]
M  SAL   9  1   9
M  SED   9 [#6&h0]
M  SAL  10  1  10
M  SED  10 [#6&h0]
M  SAL  11  1  11
M  SED  11 [#6&h0]
M  SAL  12  1  12
M  SED  12 [#6&h0]
M  SAL  13  1  13
M  SED  13 [#6&h0]
M  SAL  14  1  14
M  SED  14 [#6&h0]
M  SAL  15  1  15
M  SED  15 [#6&h0]
M  SAL  16  1  16
M  SED  16 [#6&h0]
M  SAL  17  1  17
M  SED  17 [#6&h0]
M  SAL  18  1  18
M  SED  18 [#6&h0]
M  SAL  19  1  19
M  SED  19 [#6&h0]
M  SAL  20  1  20
M  SED  20 [#6&h0]
M  SAL  21  1  21
M  SED  21 [#6&h0]
M  SAL  22  1  22
M  SED  22 [#6&h0]
M  SAL  23  1  23
M  SED  23 [#6&h0]
M  SAL  24  1  24
M  SED  24 [#1&h0]
M  SAL  25  1  25
M  SED  25 [#1&h0]
M  SAL  26  1  26
M  SED  26 [#1&h0]
M  SAL  27  1  27
M  SED  27 [#1&h0]
M  SAL  28  1  28
M  SED  28 [#1&h0]
M  SAL  29  1  29
M  SED  29 [#1&h0]
M  SAL  30  1  30
M  SED  30 [#1&h0]
M  SAL  31  1  31
M  SED  31 [#1&h0]
M  SAL  32  1  32
M  SED  32 [#1&h0]
M  SAL  33  1  33
M  SED  33 [#1&h0]
M  SAL  34  1  34
M  SED  34 [#1&h0]
M  SAL  35  1  35
M  SED  35 [#1&h0]
M  SAL  36  1  36
M  SED  36 [#1&h0]
M  SAL  37  1  37
M  SED  37 [#1&h0]
M  SAL  38  1  38
M  SED  38 [#1&h0]
M  SAL  39  1  39
M  SED  39 [#1&h0]
M  SAL  40  1  40
M  SED  40 [#1&h0]
M  SAL  41  1  41
M  SED  41 [#1&h0]
M  SAL  42  1  42
M  SED  42 [#1&h0]
M  SAL  43  1  43
M  SED  43 [#1&h0]
M  END
>  <Activity>  (6) 
0.01

>  <Mapped(file=2032.csv.activities,property=Cached(PUBCHEM_COMPOUND_CID))>  (6) 
100

>  <MatchIndices>  (6) 
179 

>  <PUBCHEM_ATOM_DEF_STEREO_COUNT>  (6) 
0

>  <PUBCHEM_ATOM_UDEF_STEREO_COUNT>  (6) 
0

>  <PUBCHEM_BONDANNOTATIONS>  (6) 
1  19  8
1  23  8
12  15  8
19  21  8
21  22  8
22  23  8
4  12  8
4  16  8
6  15  8
6  7  8
7  16  8

>  <PUBCHEM_BOND_DEF_STEREO_COUNT>  (6) 
0

>  <PUBCHEM_BOND_UDEF_STEREO_COUNT>  (6) 
0

>  <PUBCHEM_CACTVS_COMPLEXITY>  (6) 
455

>  <PUBCHEM_CACTVS_HBOND_ACCEPTOR>  (6) 
4

>  <PUBCHEM_CACTVS_HBOND_DONOR>  (6) 
1

>  <PUBCHEM_CACTVS_ROTATABLE_BOND>  (6) 
2

>  <PUBCHEM_CACTVS_SUBSKEYS>  (6) 
AAADceB7oAAAAAAAAAAAAAAAAAAAASAAAAA8WIAAAAAAAACx4AAAHgAQAAAADAzhngYxtJPIFEC4B65y5ASiiCknICAJmKGuTNiO5vLEvbuXOSjs0BPY6a+Y2fOegAAAAAAAAAAAAAAAACAAAAAAAAAAAA==

>  <PUBCHEM_CACTVS_TAUTO_COUNT>  (6) 
1

>  <PUBCHEM_CACTVS_TPSA>  (6) 
65.1

>  <PUBCHEM_COMPONENT_COUNT>  (6) 
1

>  <PUBCHEM_COMPOUND_CANONICALIZED>  (6) 
1

>  <PUBCHEM_COMPOUND_CID>  (6) 
3724094

>  <PUBCHEM_COORDINATE_TYPE>  (6) 
1
5
255

>  <PUBCHEM_EXACT_MASS>  (6) 
308.163711

>  <PUBCHEM_HEAVY_ATOM_COUNT>  (6) 
23

>  <PUBCHEM_ISOTOPIC_ATOM_COUNT>  (6) 
0

>  <PUBCHEM_IUPAC_CAS_NAME>  (6) 
1-(2-furanyl)-3-(1-piperazinyl)-5,6,7,8-tetrahydroisoquinoline-4-carbonitrile

>  <PUBCHEM_IUPAC_INCHI>  (6) 
InChI=1S/C18H20N4O/c19-12-15-13-4-1-2-5-14(13)17(16-6-3-11-23-16)21-18(15)22-9-7-20-8-10-22/h3,6,11,20H,1-2,4-5,7-10H2

>  <PUBCHEM_IUPAC_INCHIKEY>  (6) 
NWGIJBRDVFIBHQ-UHFFFAOYSA-N

>  <PUBCHEM_IUPAC_NAME>  (6) 
1-(furan-2-yl)-3-piperazin-1-yl-5,6,7,8-tetrahydroisoquinoline-4-carbonitrile

>  <PUBCHEM_IUPAC_OPENEYE_NAME>  (6) 
1-(2-furyl)-3-piperazin-1-yl-5,6,7,8-tetrahydroisoquinoline-4-carbonitrile

>  <PUBCHEM_IUPAC_SYSTEMATIC_NAME>  (6) 
1-(furan-2-yl)-3-piperazin-1-yl-5,6,7,8-tetrahydroisoquinoline-4-carbonitrile

>  <PUBCHEM_IUPAC_TRADITIONAL_NAME>  (6) 
1-(2-furyl)-3-piperazino-5,6,7,8-tetrahydroisoquinoline-4-carbonitrile

>  <PUBCHEM_MOLECULAR_FORMULA>  (6) 
C18H20N4O

>  <PUBCHEM_MOLECULAR_WEIGHT>  (6) 
308.3776

>  <PUBCHEM_MONOISOTOPIC_WEIGHT>  (6) 
308.163711

>  <PUBCHEM_OPENEYE_CAN_SMILES>  (6) 
C1CCC2=C(N=C(C(=C2C1)C#N)N3CCNCC3)C4=CC=CO4

>  <PUBCHEM_OPENEYE_ISO_SMILES>  (6) 
C1CCC2=C(N=C(C(=C2C1)C#N)N3CCNCC3)C4=CC=CO4

>  <PUBCHEM_TOTAL_CHARGE>  (6) 
0

>  <PUBCHEM_XLOGP3_AA>  (6) 
2.5

$$$$
Largest isolated from Written by BCL::WriteToMDL,11948866
     RDKit          2D

 44 44  0 44  0  0  0  0  0  0999 V2000
   -0.7220    2.2367    0.0000 S   0  0  0  0  0  0  0  0  0  0  0  0
    2.0771   -2.1411    0.0000 O   0  0  0  0  0  0  0  0  0  0  0  0
    1.8055    3.8527    0.0000 O   0  0  0  0  0  0  0  0  0  0  0  0
    7.2680   -1.9059    0.0000 N   0  0  0  0  0  0  0  0  0  0  0  0
   -3.2495    0.6206    0.0000 C   0  0  0  0  0  0  0  0  0  0  0  0
   -4.5133   -0.1874    0.0000 C   0  0  0  0  0  0  0  0  0  0  0  0
   -1.9857    1.4286    0.0000 C   0  0  0  0  0  0  0  0  0  0  0  0
   -5.7770   -0.9955    0.0000 C   0  0  0  0  0  0  0  0  0  0  0  0
    3.2730    0.1654    0.0000 C   0  0  0  0  0  0  0  0  0  0  0  0
    4.6046   -0.5251    0.0000 C   0  0  0  0  0  0  0  0  0  0  0  0
    0.6097    1.5462    0.0000 C   0  0  0  0  0  0  0  0  0  0  0  0
    2.0092   -0.6427    0.0000 C   0  0  0  0  0  0  0  0  0  0  0  0
    1.8734    2.3543    0.0000 C   0  0  0  0  0  0  0  0  0  0  0  0
    3.2051    1.6638    0.0000 C   0  0  0  0  0  0  0  0  0  0  0  0
    0.6776    0.0478    0.0000 C   0  0  0  0  0  0  0  0  0  0  0  0
   -7.0408   -1.8035    0.0000 C   0  0  0  0  0  0  0  0  0  0  0  0
    5.9363   -1.2155    0.0000 C   0  0  0  0  0  0  0  0  0  0  0  0
    0.8134   -2.9492    0.0000 C   0  0  0  0  0  0  0  0  0  0  0  0
    0.4739    4.5432    0.0000 C   0  0  0  0  0  0  0  0  0  0  0  0
   -2.4415   -0.6432    0.0000 H   0  0  0  0  0  0  0  0  0  0  0  0
   -4.0575    1.8844    0.0000 H   0  0  0  0  0  0  0  0  0  0  0  0
   -3.7052   -1.4512    0.0000 H   0  0  0  0  0  0  0  0  0  0  0  0
   -5.3213    1.0763    0.0000 H   0  0  0  0  0  0  0  0  0  0  0  0
   -2.7938    2.6924    0.0000 H   0  0  0  0  0  0  0  0  0  0  0  0
   -1.1777    0.1649    0.0000 H   0  0  0  0  0  0  0  0  0  0  0  0
   -6.5850    0.2683    0.0000 H   0  0  0  0  0  0  0  0  0  0  0  0
   -4.9690   -2.2592    0.0000 H   0  0  0  0  0  0  0  0  0  0  0  0
    5.2951    0.8066    0.0000 H   0  0  0  0  0  0  0  0  0  0  0  0
    3.9142   -1.8567    0.0000 H   0  0  0  0  0  0  0  0  0  0  0  0
    4.4689    2.4719    0.0000 H   0  0  0  0  0  0  0  0  0  0  0  0
   -0.5862   -0.7603    0.0000 H   0  0  0  0  0  0  0  0  0  0  0  0
    5.2459   -2.5472    0.0000 H   0  0  0  0  0  0  0  0  0  0  0  0
    6.6267    0.1161    0.0000 H   0  0  0  0  0  0  0  0  0  0  0  0
   -6.2327   -3.0672    0.0000 H   0  0  0  0  0  0  0  0  0  0  0  0
   -7.8488   -0.5397    0.0000 H   0  0  0  0  0  0  0  0  0  0  0  0
   -8.3045   -2.6115    0.0000 H   0  0  0  0  0  0  0  0  0  0  0  0
    7.3358   -3.4044    0.0000 H   0  0  0  0  0  0  0  0  0  0  0  0
    8.5317   -1.0979    0.0000 H   0  0  0  0  0  0  0  0  0  0  0  0
    1.6214   -4.2129    0.0000 H   0  0  0  0  0  0  0  0  0  0  0  0
    0.0053   -1.6854    0.0000 H   0  0  0  0  0  0  0  0  0  0  0  0
   -0.4504   -3.7572    0.0000 H   0  0  0  0  0  0  0  0  0  0  0  0
    1.1643    5.8748    0.0000 H   0  0  0  0  0  0  0  0  0  0  0  0
   -0.2165    3.2115    0.0000 H   0  0  0  0  0  0  0  0  0  0  0  0
   -0.8578    5.2336    0.0000 H   0  0  0  0  0  0  0  0  0  0  0  0
  1  7  1  0
  1 11  1  0
  2 12  1  0
  2 18  1  0
  3 13  1  0
  3 19  1  0
  4 17  1  0
  4 37  1  0
  4 38  1  0
  5  6  1  0
  5  7  1  0
  5 20  1  0
  5 21  1  0
  6  8  1  0
  6 22  1  0
  6 23  1  0
  7 24  1  0
  7 25  1  0
  8 16  1  0
  8 26  1  0
  8 27  1  0
  9 10  1  0
  9 12  2  0
  9 14  1  0
 10 17  1  0
 10 28  1  0
 10 29  1  0
 11 13  1  0
 11 15  2  0
 12 15  1  0
 13 14  2  0
 14 30  1  0
 15 31  1  0
 16 34  1  0
 16 35  1  0
 16 36  1  0
 17 32  1  0
 17 33  1  0
 18 39  1  0
 18 40  1  0
 18 41  1  0
 19 42  1  0
 19 43  1  0
 19 44  1  0
M  STY  8   1 DAT   2 DAT   3 DAT   4 DAT   5 DAT   6 DAT   7 DAT   8 DAT
M  STY  8   9 DAT  10 DAT  11 DAT  12 DAT  13 DAT  14 DAT  15 DAT  16 DAT
M  STY  8  17 DAT  18 DAT  19 DAT  20 DAT  21 DAT  22 DAT  23 DAT  24 DAT
M  STY  8  25 DAT  26 DAT  27 DAT  28 DAT  29 DAT  30 DAT  31 DAT  32 DAT
M  STY  8  33 DAT  34 DAT  35 DAT  36 DAT  37 DAT  38 DAT  39 DAT  40 DAT
M  STY  4  41 DAT  42 DAT  43 DAT  44 DAT
M  SAL   1  1   1
M  SED   1 [#16&h0]
M  SAL   2  1   2
M  SED   2 [#8&h0]
M  SAL   3  1   3
M  SED   3 [#8&h0]
M  SAL   4  1   4
M  SED   4 [#7&h0]
M  SAL   5  1   5
M  SED   5 [#6&h0]
M  SAL   6  1   6
M  SED   6 [#6&h0]
M  SAL   7  1   7
M  SED   7 [#6&h0]
M  SAL   8  1   8
M  SED   8 [#6&h0]
M  SAL   9  1   9
M  SED   9 [#6&h0]
M  SAL  10  1  10
M  SED  10 [#6&h0]
M  SAL  11  1  11
M  SED  11 [#6&h0]
M  SAL  12  1  12
M  SED  12 [#6&h0]
M  SAL  13  1  13
M  SED  13 [#6&h0]
M  SAL  14  1  14
M  SED  14 [#6&h0]
M  SAL  15  1  15
M  SED  15 [#6&h0]
M  SAL  16  1  16
M  SED  16 [#6&h0]
M  SAL  17  1  17
M  SED  17 [#6&h0]
M  SAL  18  1  18
M  SED  18 [#6&h0]
M  SAL  19  1  19
M  SED  19 [#6&h0]
M  SAL  20  1  20
M  SED  20 [#1&h0]
M  SAL  21  1  21
M  SED  21 [#1&h0]
M  SAL  22  1  22
M  SED  22 [#1&h0]
M  SAL  23  1  23
M  SED  23 [#1&h0]
M  SAL  24  1  24
M  SED  24 [#1&h0]
M  SAL  25  1  25
M  SED  25 [#1&h0]
M  SAL  26  1  26
M  SED  26 [#1&h0]
M  SAL  27  1  27
M  SED  27 [#1&h0]
M  SAL  28  1  28
M  SED  28 [#1&h0]
M  SAL  29  1  29
M  SED  29 [#1&h0]
M  SAL  30  1  30
M  SED  30 [#1&h0]
M  SAL  31  1  31
M  SED  31 [#1&h0]
M  SAL  32  1  32
M  SED  32 [#1&h0]
M  SAL  33  1  33
M  SED  33 [#1&h0]
M  SAL  34  1  34
M  SED  34 [#1&h0]
M  SAL  35  1  35
M  SED  35 [#1&h0]
M  SAL  36  1  36
M  SED  36 [#1&h0]
M  SAL  37  1  37
M  SED  37 [#1&h0]
M  SAL  38  1  38
M  SED  38 [#1&h0]
M  SAL  39  1  39
M  SED  39 [#1&h0]
M  SAL  40  1  40
M  SED  40 [#1&h0]
M  SAL  41  1  41
M  SED  41 [#1&h0]
M  SAL  42  1  42
M  SED  42 [#1&h0]
M  SAL  43  1  43
M  SED  43 [#1&h0]
M  SAL  44  1  44
M  SED  44 [#1&h0]
M  END
>  <Activity>  (7) 
0.01

>  <Mapped(file=2032.csv.activities,property=Cached(PUBCHEM_COMPOUND_CID))>  (7) 
100

>  <MatchIndices>  (7) 
130 

>  <PUBCHEM_ATOM_DEF_STEREO_COUNT>  (7) 
0

>  <PUBCHEM_ATOM_UDEF_STEREO_COUNT>  (7) 
0

>  <PUBCHEM_BONDANNOTATIONS>  (7) 
13  16  8
13  18  8
15  17  8
15  19  8
16  19  8
17  18  8

>  <PUBCHEM_BOND_DEF_STEREO_COUNT>  (7) 
1

>  <PUBCHEM_BOND_UDEF_STEREO_COUNT>  (7) 
0

>  <PUBCHEM_CACTVS_COMPLEXITY>  (7) 
347

>  <PUBCHEM_CACTVS_HBOND_ACCEPTOR>  (7) 
8

>  <PUBCHEM_CACTVS_HBOND_DONOR>  (7) 
3

>  <PUBCHEM_CACTVS_ROTATABLE_BOND>  (7) 
11

>  <PUBCHEM_CACTVS_SUBSKEYS>  (7) 
AAADceB6OABAAAAAAAAAAAAAAAAAAAAAAAAwAAAAAAAAAAABAAAAHgQQCAAADATF2AayD4BABgiIAiDSCAACCAAgKBAIiJoGCMgMJiKksRuAMCAk0BEouYfw0LAOEQABBAAIIAAiAAIIABBAAAAAAAAAAA==

>  <PUBCHEM_CACTVS_TAUTO_COUNT>  (7) 
1

>  <PUBCHEM_CACTVS_TPSA>  (7) 
144

>  <PUBCHEM_COMPONENT_COUNT>  (7) 
2

>  <PUBCHEM_COMPOUND_CANONICALIZED>  (7) 
1

>  <PUBCHEM_COMPOUND_CID>  (7) 
11948866

>  <PUBCHEM_COORDINATE_TYPE>  (7) 
1
5
255

>  <PUBCHEM_EXACT_MASS>  (7) 
399.171559

>  <PUBCHEM_HEAVY_ATOM_COUNT>  (7) 
27

>  <PUBCHEM_ISOTOPIC_ATOM_COUNT>  (7) 
0

>  <PUBCHEM_IUPAC_CAS_NAME>  (7) 
(Z)-2-butenedioic acid; 2-[2,5-dimethoxy-4-(pentylthio)phenyl]ethanamine

>  <PUBCHEM_IUPAC_INCHI>  (7) 
InChI=1S/C15H25NO2S.C4H4O4/c1-4-5-6-9-19-15-11-13(17-2)12(7-8-16)10-14(15)18-3;5-3(6)1-2-4(7)8/h10-11H,4-9,16H2,1-3H3;1-2H,(H,5,6)(H,7,8)/b;2-1-

>  <PUBCHEM_IUPAC_INCHIKEY>  (7) 
BUIMMXSYSWNWBW-BTJKTKAUSA-N

>  <PUBCHEM_IUPAC_NAME>  (7) 
(Z)-but-2-enedioic acid; 2-(2,5-dimethoxy-4-pentylsulfanylphenyl)ethanamine

>  <PUBCHEM_IUPAC_OPENEYE_NAME>  (7) 
2-(2,5-dimethoxy-4-pentylsulfanyl-phenyl)ethanamine; maleic acid

>  <PUBCHEM_IUPAC_SYSTEMATIC_NAME>  (7) 
(Z)-but-2-enedioic acid; 2-(2,5-dimethoxy-4-pentylsulfanyl-phenyl)ethanamine

>  <PUBCHEM_IUPAC_TRADITIONAL_NAME>  (7) 
2-[4-(amylthio)-2,5-dimethoxy-phenyl]ethylamine; maleic acid

>  <PUBCHEM_MOLECULAR_FORMULA>  (7) 
C19H29NO6S

>  <PUBCHEM_MOLECULAR_WEIGHT>  (7) 
399.50166

>  <PUBCHEM_MONOISOTOPIC_WEIGHT>  (7) 
399.171559

>  <PUBCHEM_OPENEYE_CAN_SMILES>  (7) 
CCCCCSC1=C(C=C(C(=C1)OC)CCN)OC.C(=CC(=O)O)C(=O)O

>  <PUBCHEM_OPENEYE_ISO_SMILES>  (7) 
CCCCCSC1=C(C=C(C(=C1)OC)CCN)OC.C(=C\C(=O)O)\C(=O)O

>  <PUBCHEM_TOTAL_CHARGE>  (7) 
0

$$$$
Largest isolated from Written by BCL::WriteToMDL,24980797
     RDKit          2D

 52 53  0 52  0  0  0  0  0  0999 V2000
   -3.5182    3.4984    0.0000 S   0  0  0  0  0  0  0  0  0  0  0  0
   -1.1466    0.3162    0.0000 O   0  0  0  0  0  0  0  0  0  0  0  0
    1.4080   -2.8681    0.0000 O   0  0  0  0  0  0  0  0  0  0  0  0
    0.3136    2.4651    0.0000 O   0  0  0  0  0  0  0  0  0  0  0  0
   -2.7575   -0.8235    0.0000 O   0  0  0  0  0  0  0  0  0  0  0  0
   -7.4597    3.0356    0.0000 O   0  0  0  0  0  0  0  0  0  0  0  0
   -6.3289    0.6966    0.0000 N   0  0  0  0  0  0  0  0  0  0  0  0
   -3.6769    0.3617    0.0000 N   0  0  0  0  0  0  0  0  0  0  0  0
    2.6851   -0.7170    0.0000 C   0  0  0  0  0  0  0  0  0  0  0  0
    3.9258   -1.5601    0.0000 C   0  0  0  0  0  0  0  0  0  0  0  0
    4.1454    1.4318    0.0000 C   0  0  0  0  0  0  0  0  0  0  0  0
    5.3860    0.5888    0.0000 C   0  0  0  0  0  0  0  0  0  0  0  0
    2.7949    0.7789    0.0000 C   0  0  0  0  0  0  0  0  0  0  0  0
    0.0940   -0.5269    0.0000 C   0  0  0  0  0  0  0  0  0  0  0  0
    1.3347   -1.3699    0.0000 C   0  0  0  0  0  0  0  0  0  0  0  0
    5.2762   -0.9072    0.0000 C   0  0  0  0  0  0  0  0  0  0  0  0
    3.8160   -3.0561    0.0000 C   0  0  0  0  0  0  0  0  0  0  0  0
    4.2552    2.9278    0.0000 C   0  0  0  0  0  0  0  0  0  0  0  0
    6.7365    1.2417    0.0000 C   0  0  0  0  0  0  0  0  0  0  0  0
   -0.7491   -1.7675    0.0000 C   0  0  0  0  0  0  0  0  0  0  0  0
   -1.0368    1.8122    0.0000 C   0  0  0  0  0  0  0  0  0  0  0  0
   -2.2775    2.6553    0.0000 C   0  0  0  0  0  0  0  0  0  0  0  0
   -4.8686    2.8455    0.0000 C   0  0  0  0  0  0  0  0  0  0  0  0
   -6.2191    2.1926    0.0000 C   0  0  0  0  0  0  0  0  0  0  0  0
   -5.0882   -0.1465    0.0000 C   0  0  0  0  0  0  0  0  0  0  0  0
   -5.0410   -1.6458    0.0000 C   0  0  0  0  0  0  0  0  0  0  0  0
   -3.6006   -2.0642    0.0000 C   0  0  0  0  0  0  0  0  0  0  0  0
   -3.0924   -3.4755    0.0000 C   0  0  0  0  0  0  0  0  0  0  0  0
    1.5543    1.6220    0.0000 H   0  0  0  0  0  0  0  0  0  0  0  0
    0.9371    0.7138    0.0000 H   0  0  0  0  0  0  0  0  0  0  0  0
    6.5169   -1.7503    0.0000 H   0  0  0  0  0  0  0  0  0  0  0  0
    2.3200   -2.9463    0.0000 H   0  0  0  0  0  0  0  0  0  0  0  0
    5.3119   -3.1659    0.0000 H   0  0  0  0  0  0  0  0  0  0  0  0
    3.7062   -4.5521    0.0000 H   0  0  0  0  0  0  0  0  0  0  0  0
    2.7592    3.0376    0.0000 H   0  0  0  0  0  0  0  0  0  0  0  0
    5.4687    2.9873    0.0000 H   0  0  0  0  0  0  0  0  0  0  0  0
    4.3650    4.4238    0.0000 H   0  0  0  0  0  0  0  0  0  0  0  0
    7.3894   -0.1088    0.0000 H   0  0  0  0  0  0  0  0  0  0  0  0
    6.3449    2.3918    0.0000 H   0  0  0  0  0  0  0  0  0  0  0  0
    8.0869    1.8946    0.0000 H   0  0  0  0  0  0  0  0  0  0  0  0
   -1.8894   -1.3481    0.0000 H   0  0  0  0  0  0  0  0  0  0  0  0
    0.3796   -2.7555    0.0000 H   0  0  0  0  0  0  0  0  0  0  0  0
   -1.2488   -2.7401    0.0000 H   0  0  0  0  0  0  0  0  0  0  0  0
   -3.1206    1.4146    0.0000 H   0  0  0  0  0  0  0  0  0  0  0  0
   -1.4344    3.8959    0.0000 H   0  0  0  0  0  0  0  0  0  0  0  0
   -5.5215    4.1959    0.0000 H   0  0  0  0  0  0  0  0  0  0  0  0
   -4.2157    1.4950    0.0000 H   0  0  0  0  0  0  0  0  0  0  0  0
   -7.6793    0.0437    0.0000 H   0  0  0  0  0  0  0  0  0  0  0  0
   -6.2262   -2.5652    0.0000 H   0  0  0  0  0  0  0  0  0  0  0  0
   -4.5037   -3.9836    0.0000 H   0  0  0  0  0  0  0  0  0  0  0  0
   -2.0261   -3.2332    0.0000 H   0  0  0  0  0  0  0  0  0  0  0  0
   -2.5843   -4.8868    0.0000 H   0  0  0  0  0  0  0  0  0  0  0  0
  1 22  1  0
  1 23  1  0
  2 14  1  0
  2 21  1  0
  3 15  2  0
  4 21  2  0
  5  8  1  0
  5 27  1  0
  6 24  2  0
  7 24  1  0
  7 25  1  0
  7 48  1  0
  8 25  2  0
  9 10  2  0
  9 13  1  0
  9 15  1  0
 10 16  1  0
 10 17  1  0
 11 12  1  0
 11 13  2  0
 11 18  1  0
 12 16  2  0
 12 19  1  0
 13 29  1  0
 14 15  1  0
 14 20  1  0
 14 30  1  6
 16 31  1  0
 17 32  1  0
 17 33  1  0
 17 34  1  0
 18 35  1  0
 18 36  1  0
 18 37  1  0
 19 38  1  0
 19 39  1  0
 19 40  1  0
 20 41  1  0
 20 42  1  0
 20 43  1  0
 21 22  1  0
 22 44  1  0
 22 45  1  0
 23 24  1  0
 23 46  1  0
 23 47  1  0
 25 26  1  0
 26 27  2  0
 26 49  1  0
 27 28  1  0
 28 50  1  0
 28 51  1  0
 28 52  1  0
M  STY  8   1 DAT   2 DAT   3 DAT   4 DAT   5 DAT   6 DAT   7 DAT   8 DAT
M  STY  8   9 DAT  10 DAT  11 DAT  12 DAT  13 DAT  14 DAT  15 DAT  16 DAT
M  STY  8  17 DAT  18 DAT  19 DAT  20 DAT  21 DAT  22 DAT  23 DAT  24 DAT
M  STY  8  25 DAT  26 DAT  27 DAT  28 DAT  29 DAT  30 DAT  31 DAT  32 DAT
M  STY  8  33 DAT  34 DAT  35 DAT  36 DAT  37 DAT  38 DAT  39 DAT  40 DAT
M  STY  8  41 DAT  42 DAT  43 DAT  44 DAT  45 DAT  46 DAT  47 DAT  48 DAT
M  STY  4  49 DAT  50 DAT  51 DAT  52 DAT
M  SAL   1  1   1
M  SED   1 [#16&h0]
M  SAL   2  1   2
M  SED   2 [#8&h0]
M  SAL   3  1   3
M  SED   3 [#8&h0]
M  SAL   4  1   4
M  SED   4 [#8&h0]
M  SAL   5  1   5
M  SED   5 [#8&h0]
M  SAL   6  1   6
M  SED   6 [#8&h0]
M  SAL   7  1   7
M  SED   7 [#7&h0]
M  SAL   8  1   8
M  SED   8 [#7&h0]
M  SAL   9  1   9
M  SED   9 [#6&h0]
M  SAL  10  1  10
M  SED  10 [#6&h0]
M  SAL  11  1  11
M  SED  11 [#6&h0]
M  SAL  12  1  12
M  SED  12 [#6&h0]
M  SAL  13  1  13
M  SED  13 [#6&h0]
M  SAL  14  1  14
M  SED  14 [#6&h0]
M  SAL  15  1  15
M  SED  15 [#6&h0]
M  SAL  16  1  16
M  SED  16 [#6&h0]
M  SAL  17  1  17
M  SED  17 [#6&h0]
M  SAL  18  1  18
M  SED  18 [#6&h0]
M  SAL  19  1  19
M  SED  19 [#6&h0]
M  SAL  20  1  20
M  SED  20 [#6&h0]
M  SAL  21  1  21
M  SED  21 [#6&h0]
M  SAL  22  1  22
M  SED  22 [#6&h0]
M  SAL  23  1  23
M  SED  23 [#6&h0]
M  SAL  24  1  24
M  SED  24 [#6&h0]
M  SAL  25  1  25
M  SED  25 [#6&h0]
M  SAL  26  1  26
M  SED  26 [#6&h0]
M  SAL  27  1  27
M  SED  27 [#6&h0]
M  SAL  28  1  28
M  SED  28 [#6&h0]
M  SAL  29  1  29
M  SED  29 [#1&h0]
M  SAL  30  1  30
M  SED  30 [#1&h0]
M  SAL  31  1  31
M  SED  31 [#1&h0]
M  SAL  32  1  32
M  SED  32 [#1&h0]
M  SAL  33  1  33
M  SED  33 [#1&h0]
M  SAL  34  1  34
M  SED  34 [#1&h0]
M  SAL  35  1  35
M  SED  35 [#1&h0]
M  SAL  36  1  36
M  SED  36 [#1&h0]
M  SAL  37  1  37
M  SED  37 [#1&h0]
M  SAL  38  1  38
M  SED  38 [#1&h0]
M  SAL  39  1  39
M  SED  39 [#1&h0]
M  SAL  40  1  40
M  SED  40 [#1&h0]
M  SAL  41  1  41
M  SED  41 [#1&h0]
M  SAL  42  1  42
M  SED  42 [#1&h0]
M  SAL  43  1  43
M  SED  43 [#1&h0]
M  SAL  44  1  44
M  SED  44 [#1&h0]
M  SAL  45  1  45
M  SED  45 [#1&h0]
M  SAL  46  1  46
M  SED  46 [#1&h0]
M  SAL  47  1  47
M  SED  47 [#1&h0]
M  SAL  48  1  48
M  SED  48 [#1&h0]
M  SAL  49  1  49
M  SED  49 [#1&h0]
M  SAL  50  1  50
M  SED  50 [#1&h0]
M  SAL  51  1  51
M  SED  51 [#1&h0]
M  SAL  52  1  52
M  SED  52 [#1&h0]
M  END
>  <Activity>  (8) 
0.01

>  <Mapped(file=2032.csv.activities,property=Cached(PUBCHEM_COMPOUND_CID))>  (8) 
100

>  <MatchIndices>  (8) 
161 

>  <PUBCHEM_ATOM_DEF_STEREO_COUNT>  (8) 
0

>  <PUBCHEM_ATOM_UDEF_STEREO_COUNT>  (8) 
1

>  <PUBCHEM_BONDANNOTATIONS>  (8) 
10  16  8
11  12  8
11  13  8
12  16  8
14  20  3
25  26  8
26  27  8
5  27  8
5  8  8
8  25  8
9  10  8
9  13  8

>  <PUBCHEM_BOND_DEF_STEREO_COUNT>  (8) 
0

>  <PUBCHEM_BOND_UDEF_STEREO_COUNT>  (8) 
0

>  <PUBCHEM_CACTVS_COMPLEXITY>  (8) 
573

>  <PUBCHEM_CACTVS_HBOND_ACCEPTOR>  (8) 
7

>  <PUBCHEM_CACTVS_HBOND_DONOR>  (8) 
1

>  <PUBCHEM_CACTVS_ROTATABLE_BOND>  (8) 
9

>  <PUBCHEM_CACTVS_SUBSKEYS>  (8) 
AAADceB7OABAAAAAAAAAAAAAAAAAAWAAAAAwAAAAAAAAAAABwAAAHgQUAAAADBSl2gKzvJLQBAipAqPyegKCAAAlIhAhmCF2bNqIJDrAnZSGIYhm1QvoyceIyPCOwAACAAAQAACAAAQAACAAAAAAAAAAAA==

>  <PUBCHEM_CACTVS_TAUTO_COUNT>  (8) 
210

>  <PUBCHEM_CACTVS_TPSA>  (8) 
124

>  <PUBCHEM_COMPONENT_COUNT>  (8) 
1

>  <PUBCHEM_COMPOUND_CANONICALIZED>  (8) 
1

>  <PUBCHEM_COMPOUND_CID>  (8) 
24980797

>  <PUBCHEM_COORDINATE_TYPE>  (8) 
1
5
255

>  <PUBCHEM_EXACT_MASS>  (8) 
404.140593

>  <PUBCHEM_HEAVY_ATOM_COUNT>  (8) 
28

>  <PUBCHEM_ISOTOPIC_ATOM_COUNT>  (8) 
0

>  <PUBCHEM_IUPAC_CAS_NAME>  (8) 
2-[[2-[(5-methyl-3-isoxazolyl)amino]-2-oxoethyl]thio]acetic acid [1-oxo-1-(2,4,5-trimethylphenyl)propan-2-yl] ester

>  <PUBCHEM_IUPAC_INCHI>  (8) 
InChI=1S/C20H24N2O5S/c1-11-6-13(3)16(7-12(11)2)20(25)15(5)26-19(24)10-28-9-18(23)21-17-8-14(4)27-22-17/h6-8,15H,9-10H2,1-5H3,(H,21,22,23)

>  <PUBCHEM_IUPAC_INCHIKEY>  (8) 
MXWFUEFVOUTXFZ-UHFFFAOYSA-N

>  <PUBCHEM_IUPAC_NAME>  (8) 
[1-oxo-1-(2,4,5-trimethylphenyl)propan-2-yl] 2-[2-[(5-methyl-1,2-oxazol-3-yl)amino]-2-oxoethyl]sulfanylacetate

>  <PUBCHEM_IUPAC_OPENEYE_NAME>  (8) 
[1-methyl-2-oxo-2-(2,4,5-trimethylphenyl)ethyl] 2-[2-[(5-methylisoxazol-3-yl)amino]-2-oxo-ethyl]sulfanylacetate

>  <PUBCHEM_IUPAC_SYSTEMATIC_NAME>  (8) 
[1-oxidanylidene-1-(2,4,5-trimethylphenyl)propan-2-yl] 2-[2-[(5-methyl-1,2-oxazol-3-yl)amino]-2-oxidanylidene-ethyl]sulfanylethanoate

>  <PUBCHEM_IUPAC_TRADITIONAL_NAME>  (8) 
2-[[2-keto-2-[(5-methylisoxazol-3-yl)amino]ethyl]thio]acetic acid [2-keto-1-methyl-2-(2,4,5-trimethylphenyl)ethyl] ester

>  <PUBCHEM_MOLECULAR_FORMULA>  (8) 
C20H24N2O5S

>  <PUBCHEM_MOLECULAR_WEIGHT>  (8) 
404.47996

>  <PUBCHEM_MONOISOTOPIC_WEIGHT>  (8) 
404.140593

>  <PUBCHEM_OPENEYE_CAN_SMILES>  (8) 
CC1=CC(=C(C=C1C(=O)C(C)OC(=O)CSCC(=O)NC2=NOC(=C2)C)C)C

>  <PUBCHEM_OPENEYE_ISO_SMILES>  (8) 
CC1=CC(=C(C=C1C(=O)C(C)OC(=O)CSCC(=O)NC2=NOC(=C2)C)C)C

>  <PUBCHEM_TOTAL_CHARGE>  (8) 
0

>  <PUBCHEM_XLOGP3_AA>  (8) 
3.8

$$$$
Largest isolated from Written by BCL::WriteToMDL,2959070
     RDKit          2D

 44 45  0 44  0  0  0  0  0  0999 V2000
    1.3581   -1.8270    0.0000 Cl  0  0  0  0  0  0  0  0  0  0  0  0
    1.7131    1.1519    0.0000 O   0  0  0  0  0  0  0  0  0  0  0  0
   -0.6891    2.9489    0.0000 O   0  0  0  0  0  0  0  0  0  0  0  0
   -5.1803   -1.8029    0.0000 N   0  0  0  0  0  0  0  0  0  0  0  0
   -2.4229   -0.6210    0.0000 C   0  0  0  0  0  0  0  0  0  0  0  0
   -3.8016   -1.2120    0.0000 C   0  0  0  0  0  0  0  0  0  0  0  0
   -0.8667    1.4594    0.0000 C   0  0  0  0  0  0  0  0  0  0  0  0
   -2.2454    0.8685    0.0000 C   0  0  0  0  0  0  0  0  0  0  0  0
    0.3345    0.5609    0.0000 C   0  0  0  0  0  0  0  0  0  0  0  0
   -1.2218   -1.5195    0.0000 C   0  0  0  0  0  0  0  0  0  0  0  0
    0.1569   -0.9285    0.0000 C   0  0  0  0  0  0  0  0  0  0  0  0
   -6.3814   -0.9045    0.0000 C   0  0  0  0  0  0  0  0  0  0  0  0
    2.9143    0.2534    0.0000 C   0  0  0  0  0  0  0  0  0  0  0  0
    4.1154   -0.6450    0.0000 C   0  0  0  0  0  0  0  0  0  0  0  0
   -7.5825   -0.0060    0.0000 C   0  0  0  0  0  0  0  0  0  0  0  0
    0.6895    3.5399    0.0000 C   0  0  0  0  0  0  0  0  0  0  0  0
    3.9379   -2.1345    0.0000 C   0  0  0  0  0  0  0  0  0  0  0  0
    5.4941   -0.0541    0.0000 C   0  0  0  0  0  0  0  0  0  0  0  0
    2.0682    4.1308    0.0000 C   0  0  0  0  0  0  0  0  0  0  0  0
    5.1390   -3.0330    0.0000 C   0  0  0  0  0  0  0  0  0  0  0  0
    6.6952   -0.9526    0.0000 C   0  0  0  0  0  0  0  0  0  0  0  0
    6.5177   -2.4420    0.0000 C   0  0  0  0  0  0  0  0  0  0  0  0
   -3.2106   -2.5906    0.0000 H   0  0  0  0  0  0  0  0  0  0  0  0
   -4.3925    0.1667    0.0000 H   0  0  0  0  0  0  0  0  0  0  0  0
   -3.4465    1.7669    0.0000 H   0  0  0  0  0  0  0  0  0  0  0  0
   -1.3993   -3.0089    0.0000 H   0  0  0  0  0  0  0  0  0  0  0  0
   -5.3578   -3.2924    0.0000 H   0  0  0  0  0  0  0  0  0  0  0  0
   -7.2799   -2.1056    0.0000 H   0  0  0  0  0  0  0  0  0  0  0  0
   -5.4829    0.2967    0.0000 H   0  0  0  0  0  0  0  0  0  0  0  0
    3.8128    1.4546    0.0000 H   0  0  0  0  0  0  0  0  0  0  0  0
    2.0158   -0.9477    0.0000 H   0  0  0  0  0  0  0  0  0  0  0  0
   -6.6840    1.1952    0.0000 H   0  0  0  0  0  0  0  0  0  0  0  0
   -8.4810   -1.2071    0.0000 H   0  0  0  0  0  0  0  0  0  0  0  0
   -8.7837    0.8925    0.0000 H   0  0  0  0  0  0  0  0  0  0  0  0
    0.0986    4.9185    0.0000 H   0  0  0  0  0  0  0  0  0  0  0  0
    1.2805    2.1612    0.0000 H   0  0  0  0  0  0  0  0  0  0  0  0
    2.5592   -2.7255    0.0000 H   0  0  0  0  0  0  0  0  0  0  0  0
    5.6716    1.4354    0.0000 H   0  0  0  0  0  0  0  0  0  0  0  0
    2.6592    2.7522    0.0000 H   0  0  0  0  0  0  0  0  0  0  0  0
    1.4772    5.5095    0.0000 H   0  0  0  0  0  0  0  0  0  0  0  0
    3.4469    4.7218    0.0000 H   0  0  0  0  0  0  0  0  0  0  0  0
    4.9615   -4.5224    0.0000 H   0  0  0  0  0  0  0  0  0  0  0  0
    8.0739   -0.3616    0.0000 H   0  0  0  0  0  0  0  0  0  0  0  0
    7.7188   -3.3405    0.0000 H   0  0  0  0  0  0  0  0  0  0  0  0
  1 11  1  0
  2  9  1  0
  2 13  1  0
  3  7  1  0
  3 16  1  0
  4  6  1  0
  4 12  1  0
  4 27  1  0
  5  6  1  0
  5  8  2  0
  5 10  1  0
  6 23  1  0
  6 24  1  0
  7  8  1  0
  7  9  2  0
  8 25  1  0
  9 11  1  0
 10 11  2  0
 10 26  1  0
 12 15  1  0
 12 28  1  0
 12 29  1  0
 13 14  1  0
 13 30  1  0
 13 31  1  0
 14 17  2  0
 14 18  1  0
 15 32  1  0
 15 33  1  0
 15 34  1  0
 16 19  1  0
 16 35  1  0
 16 36  1  0
 17 20  1  0
 17 37  1  0
 18 21  2  0
 18 38  1  0
 19 39  1  0
 19 40  1  0
 19 41  1  0
 20 22  2  0
 20 42  1  0
 21 22  1  0
 21 43  1  0
 22 44  1  0
M  STY  8   1 DAT   2 DAT   3 DAT   4 DAT   5 DAT   6 DAT   7 DAT   8 DAT
M  STY  8   9 DAT  10 DAT  11 DAT  12 DAT  13 DAT  14 DAT  15 DAT  16 DAT
M  STY  8  17 DAT  18 DAT  19 DAT  20 DAT  21 DAT  22 DAT  23 DAT  24 DAT
M  STY  8  25 DAT  26 DAT  27 DAT  28 DAT  29 DAT  30 DAT  31 DAT  32 DAT
M  STY  8  33 DAT  34 DAT  35 DAT  36 DAT  37 DAT  38 DAT  39 DAT  40 DAT
M  STY  4  41 DAT  42 DAT  43 DAT  44 DAT
M  SAL   1  1   1
M  SED   1 [#17&h0]
M  SAL   2  1   2
M  SED   2 [#8&h0]
M  SAL   3  1   3
M  SED   3 [#8&h0]
M  SAL   4  1   4
M  SED   4 [#7&h0]
M  SAL   5  1   5
M  SED   5 [#6&h0]
M  SAL   6  1   6
M  SED   6 [#6&h0]
M  SAL   7  1   7
M  SED   7 [#6&h0]
M  SAL   8  1   8
M  SED   8 [#6&h0]
M  SAL   9  1   9
M  SED   9 [#6&h0]
M  SAL  10  1  10
M  SED  10 [#6&h0]
M  SAL  11  1  11
M  SED  11 [#6&h0]
M  SAL  12  1  12
M  SED  12 [#6&h0]
M  SAL  13  1  13
M  SED  13 [#6&h0]
M  SAL  14  1  14
M  SED  14 [#6&h0]
M  SAL  15  1  15
M  SED  15 [#6&h0]
M  SAL  16  1  16
M  SED  16 [#6&h0]
M  SAL  17  1  17
M  SED  17 [#6&h0]
M  SAL  18  1  18
M  SED  18 [#6&h0]
M  SAL  19  1  19
M  SED  19 [#6&h0]
M  SAL  20  1  20
M  SED  20 [#6&h0]
M  SAL  21  1  21
M  SED  21 [#6&h0]
M  SAL  22  1  22
M  SED  22 [#6&h0]
M  SAL  23  1  23
M  SED  23 [#1&h0]
M  SAL  24  1  24
M  SED  24 [#1&h0]
M  SAL  25  1  25
M  SED  25 [#1&h0]
M  SAL  26  1  26
M  SED  26 [#1&h0]
M  SAL  27  1  27
M  SED  27 [#1&h0]
M  SAL  28  1  28
M  SED  28 [#1&h0]
M  SAL  29  1  29
M  SED  29 [#1&h0]
M  SAL  30  1  30
M  SED  30 [#1&h0]
M  SAL  31  1  31
M  SED  31 [#1&h0]
M  SAL  32  1  32
M  SED  32 [#1&h0]
M  SAL  33  1  33
M  SED  33 [#1&h0]
M  SAL  34  1  34
M  SED  34 [#1&h0]
M  SAL  35  1  35
M  SED  35 [#1&h0]
M  SAL  36  1  36
M  SED  36 [#1&h0]
M  SAL  37  1  37
M  SED  37 [#1&h0]
M  SAL  38  1  38
M  SED  38 [#1&h0]
M  SAL  39  1  39
M  SED  39 [#1&h0]
M  SAL  40  1  40
M  SED  40 [#1&h0]
M  SAL  41  1  41
M  SED  41 [#1&h0]
M  SAL  42  1  42
M  SED  42 [#1&h0]
M  SAL  43  1  43
M  SED  43 [#1&h0]
M  SAL  44  1  44
M  SED  44 [#1&h0]
M  END
>  <Activity>  (9) 
0.01

>  <Mapped(file=2032.csv.activities,property=Cached(PUBCHEM_COMPOUND_CID))>  (9) 
100

>  <MatchIndices>  (9) 
63 

>  <PUBCHEM_ATOM_DEF_STEREO_COUNT>  (9) 
0

>  <PUBCHEM_ATOM_UDEF_STEREO_COUNT>  (9) 
0

>  <PUBCHEM_BONDANNOTATIONS>  (9) 
10  12  8
11  12  8
15  18  8
15  19  8
18  21  8
19  22  8
21  23  8
22  23  8
6  11  8
6  9  8
8  10  8
8  9  8

>  <PUBCHEM_BOND_DEF_STEREO_COUNT>  (9) 
0

>  <PUBCHEM_BOND_UDEF_STEREO_COUNT>  (9) 
0

>  <PUBCHEM_CACTVS_COMPLEXITY>  (9) 
297

>  <PUBCHEM_CACTVS_HBOND_ACCEPTOR>  (9) 
3

>  <PUBCHEM_CACTVS_HBOND_DONOR>  (9) 
2

>  <PUBCHEM_CACTVS_ROTATABLE_BOND>  (9) 
8

>  <PUBCHEM_CACTVS_SUBSKEYS>  (9) 
AAADceB6MAAGAAAAAAAAAAAAAAAAAAAAAAAwYAAAAAAAAAABQAAAHgIQAAAADAbhmCYyBoLABACAAiBCAACCCAAgJUAIiIAOj4gNJiOFsxuGOCrk0BGKqAew0DIOIAABIQAASABAAAJCAACQAAAAAAAAAA==

>  <PUBCHEM_CACTVS_TAUTO_COUNT>  (9) 
1

>  <PUBCHEM_CACTVS_TPSA>  (9) 
30.5

>  <PUBCHEM_COMPONENT_COUNT>  (9) 
2

>  <PUBCHEM_COMPOUND_CANONICALIZED>  (9) 
1

>  <PUBCHEM_COMPOUND_CID>  (9) 
2959070

>  <PUBCHEM_COORDINATE_TYPE>  (9) 
1
5
255

>  <PUBCHEM_EXACT_MASS>  (9) 
355.110584

>  <PUBCHEM_HEAVY_ATOM_COUNT>  (9) 
23

>  <PUBCHEM_ISOTOPIC_ATOM_COUNT>  (9) 
0

>  <PUBCHEM_IUPAC_CAS_NAME>  (9) 
N-[(3-chloro-5-ethoxy-4-phenylmethoxyphenyl)methyl]ethanamine hydrochloride

>  <PUBCHEM_IUPAC_INCHI>  (9) 
InChI=1S/C18H22ClNO2.ClH/c1-3-20-12-15-10-16(19)18(17(11-15)21-4-2)22-13-14-8-6-5-7-9-14;/h5-11,20H,3-4,12-13H2,1-2H3;1H

>  <PUBCHEM_IUPAC_INCHIKEY>  (9) 
IDCDOFYWAVUYJB-UHFFFAOYSA-N

>  <PUBCHEM_IUPAC_NAME>  (9) 
N-[(3-chloro-5-ethoxy-4-phenylmethoxyphenyl)methyl]ethanamine hydrochloride

>  <PUBCHEM_IUPAC_OPENEYE_NAME>  (9) 
N-[(4-benzyloxy-3-chloro-5-ethoxy-phenyl)methyl]ethanamine hydrochloride

>  <PUBCHEM_IUPAC_SYSTEMATIC_NAME>  (9) 
N-[(3-chloranyl-5-ethoxy-4-phenylmethoxy-phenyl)methyl]ethanamine hydrochloride

>  <PUBCHEM_IUPAC_TRADITIONAL_NAME>  (9) 
(4-benzoxy-3-chloro-5-ethoxy-benzyl)-ethyl-amine hydrochloride

>  <PUBCHEM_MOLECULAR_FORMULA>  (9) 
C18H23Cl2NO2

>  <PUBCHEM_MOLECULAR_WEIGHT>  (9) 
356.28672

>  <PUBCHEM_MONOISOTOPIC_WEIGHT>  (9) 
355.110584

>  <PUBCHEM_OPENEYE_CAN_SMILES>  (9) 
CCNCC1=CC(=C(C(=C1)Cl)OCC2=CC=CC=C2)OCC.Cl

>  <PUBCHEM_OPENEYE_ISO_SMILES>  (9) 
CCNCC1=CC(=C(C(=C1)Cl)OCC2=CC=CC=C2)OCC.Cl

>  <PUBCHEM_TOTAL_CHARGE>  (9) 
0

$$$$
Largest isolated from Written by BCL::WriteToMDL,24982334
     RDKit          2D

 51 53  0 51  0  0  0  0  0  0999 V2000
   -3.0207    0.2985    0.0000 Cl  0  0  0  0  0  0  0  0  0  0  0  0
   -1.7752   -4.0257    0.0000 O   0  0  0  0  0  0  0  0  0  0  0  0
   -5.1021   -1.8621    0.0000 O   0  0  0  0  0  0  0  0  0  0  0  0
    3.0010   -0.5468    0.0000 N   0  0  0  0  0  0  0  0  0  0  0  0
   -1.1497   -1.5041    0.0000 N   0  0  0  0  0  0  0  0  0  0  0  0
    0.3062   -1.8652    0.0000 C   0  0  0  0  0  0  0  0  0  0  0  0
    1.5508   -2.7025    0.0000 C   0  0  0  0  0  0  0  0  0  0  0  0
    0.4090   -0.3687    0.0000 C   0  0  0  0  0  0  0  0  0  0  0  0
    2.8982   -2.0433    0.0000 C   0  0  0  0  0  0  0  0  0  0  0  0
    1.7564    0.2905    0.0000 C   0  0  0  0  0  0  0  0  0  0  0  0
    4.3484    0.1123    0.0000 C   0  0  0  0  0  0  0  0  0  0  0  0
    5.6958    0.7715    0.0000 C   0  0  0  0  0  0  0  0  0  0  0  0
   -2.1904   -2.5843    0.0000 C   0  0  0  0  0  0  0  0  0  0  0  0
    6.9404   -0.0658    0.0000 C   0  0  0  0  0  0  0  0  0  0  0  0
    5.7986    2.2680    0.0000 C   0  0  0  0  0  0  0  0  0  0  0  0
   -3.6462   -2.2232    0.0000 C   0  0  0  0  0  0  0  0  0  0  0  0
    8.2878    0.5934    0.0000 C   0  0  0  0  0  0  0  0  0  0  0  0
    7.1460    2.9272    0.0000 C   0  0  0  0  0  0  0  0  0  0  0  0
    8.3906    2.0899    0.0000 C   0  0  0  0  0  0  0  0  0  0  0  0
   -5.5173   -0.4207    0.0000 C   0  0  0  0  0  0  0  0  0  0  0  0
   -6.9732   -0.0595    0.0000 C   0  0  0  0  0  0  0  0  0  0  0  0
   -4.4766    0.6596    0.0000 C   0  0  0  0  0  0  0  0  0  0  0  0
   -7.3884    1.3818    0.0000 C   0  0  0  0  0  0  0  0  0  0  0  0
   -4.8918    2.1010    0.0000 C   0  0  0  0  0  0  0  0  0  0  0  0
   -6.3477    2.4621    0.0000 C   0  0  0  0  0  0  0  0  0  0  0  0
   -8.8443    1.7430    0.0000 C   0  0  0  0  0  0  0  0  0  0  0  0
   -0.3023   -3.2362    0.0000 H   0  0  0  0  0  0  0  0  0  0  0  0
   -0.5750   -0.3527    0.0000 H   0  0  0  0  0  0  0  0  0  0  0  0
   -0.0062    1.0727    0.0000 H   0  0  0  0  0  0  0  0  0  0  0  0
    2.4339   -3.9150    0.0000 H   0  0  0  0  0  0  0  0  0  0  0  0
    0.5101   -3.7828    0.0000 H   0  0  0  0  0  0  0  0  0  0  0  0
    0.8733    1.5029    0.0000 H   0  0  0  0  0  0  0  0  0  0  0  0
    2.6577    1.4895    0.0000 H   0  0  0  0  0  0  0  0  0  0  0  0
    4.3980   -2.0677    0.0000 H   0  0  0  0  0  0  0  0  0  0  0  0
    3.3134   -3.4847    0.0000 H   0  0  0  0  0  0  0  0  0  0  0  0
    5.1669   -1.1447    0.0000 H   0  0  0  0  0  0  0  0  0  0  0  0
    3.8584    1.5300    0.0000 H   0  0  0  0  0  0  0  0  0  0  0  0
   -1.5353   -0.5986    0.0000 H   0  0  0  0  0  0  0  0  0  0  0  0
    6.8375   -1.5622    0.0000 H   0  0  0  0  0  0  0  0  0  0  0  0
    4.5541    3.1053    0.0000 H   0  0  0  0  0  0  0  0  0  0  0  0
   -3.2851   -0.7673    0.0000 H   0  0  0  0  0  0  0  0  0  0  0  0
   -4.0074   -3.6791    0.0000 H   0  0  0  0  0  0  0  0  0  0  0  0
    9.5323   -0.2439    0.0000 H   0  0  0  0  0  0  0  0  0  0  0  0
    7.2489    4.4236    0.0000 H   0  0  0  0  0  0  0  0  0  0  0  0
    9.7380    2.7491    0.0000 H   0  0  0  0  0  0  0  0  0  0  0  0
   -8.0139   -1.1398    0.0000 H   0  0  0  0  0  0  0  0  0  0  0  0
   -3.8511    3.1812    0.0000 H   0  0  0  0  0  0  0  0  0  0  0  0
   -6.7629    3.9035    0.0000 H   0  0  0  0  0  0  0  0  0  0  0  0
   -8.4831    3.1989    0.0000 H   0  0  0  0  0  0  0  0  0  0  0  0
   -9.2054    0.2871    0.0000 H   0  0  0  0  0  0  0  0  0  0  0  0
  -10.3001    2.1041    0.0000 H   0  0  0  0  0  0  0  0  0  0  0  0
  1 22  1  0
  2 13  2  0
  3 16  1  0
  3 20  1  0
  4  9  1  0
  4 10  1  0
  4 11  1  0
  5  6  1  0
  5 13  1  0
  5 38  1  0
  6  7  1  0
  6  8  1  0
  6 27  1  0
  7  9  1  0
  7 30  1  0
  7 31  1  0
  8 10  1  0
  8 28  1  0
  8 29  1  0
  9 34  1  0
  9 35  1  0
 10 32  1  0
 10 33  1  0
 11 12  1  0
 11 36  1  0
 11 37  1  0
 12 14  2  0
 12 15  1  0
 13 16  1  0
 14 17  1  0
 14 39  1  0
 15 18  2  0
 15 40  1  0
 16 41  1  0
 16 42  1  0
 17 19  2  0
 17 43  1  0
 18 19  1  0
 18 44  1  0
 19 45  1  0
 20 21  2  0
 20 22  1  0
 21 23  1  0
 21 46  1  0
 22 24  2  0
 23 25  2  0
 23 26  1  0
 24 25  1  0
 24 47  1  0
 25 48  1  0
 26 49  1  0
 26 50  1  0
 26 51  1  0
M  STY  8   1 DAT   2 DAT   3 DAT   4 DAT   5 DAT   6 DAT   7 DAT   8 DAT
M  STY  8   9 DAT  10 DAT  11 DAT  12 DAT  13 DAT  14 DAT  15 DAT  16 DAT
M  STY  8  17 DAT  18 DAT  19 DAT  20 DAT  21 DAT  22 DAT  23 DAT  24 DAT
M  STY  8  25 DAT  26 DAT  27 DAT  28 DAT  29 DAT  30 DAT  31 DAT  32 DAT
M  STY  8  33 DAT  34 DAT  35 DAT  36 DAT  37 DAT  38 DAT  39 DAT  40 DAT
M  STY  8  41 DAT  42 DAT  43 DAT  44 DAT  45 DAT  46 DAT  47 DAT  48 DAT
M  STY  3  49 DAT  50 DAT  51 DAT
M  SAL   1  1   1
M  SED   1 [#17&h0]
M  SAL   2  1   2
M  SED   2 [#8&h0]
M  SAL   3  1   3
M  SED   3 [#8&h0]
M  SAL   4  1   4
M  SED   4 [#7&h0]
M  SAL   5  1   5
M  SED   5 [#7&h0]
M  SAL   6  1   6
M  SED   6 [#6&h0]
M  SAL   7  1   7
M  SED   7 [#6&h0]
M  SAL   8  1   8
M  SED   8 [#6&h0]
M  SAL   9  1   9
M  SED   9 [#6&h0]
M  SAL  10  1  10
M  SED  10 [#6&h0]
M  SAL  11  1  11
M  SED  11 [#6&h0]
M  SAL  12  1  12
M  SED  12 [#6&h0]
M  SAL  13  1  13
M  SED  13 [#6&h0]
M  SAL  14  1  14
M  SED  14 [#6&h0]
M  SAL  15  1  15
M  SED  15 [#6&h0]
M  SAL  16  1  16
M  SED  16 [#6&h0]
M  SAL  17  1  17
M  SED  17 [#6&h0]
M  SAL  18  1  18
M  SED  18 [#6&h0]
M  SAL  19  1  19
M  SED  19 [#6&h0]
M  SAL  20  1  20
M  SED  20 [#6&h0]
M  SAL  21  1  21
M  SED  21 [#6&h0]
M  SAL  22  1  22
M  SED  22 [#6&h0]
M  SAL  23  1  23
M  SED  23 [#6&h0]
M  SAL  24  1  24
M  SED  24 [#6&h0]
M  SAL  25  1  25
M  SED  25 [#6&h0]
M  SAL  26  1  26
M  SED  26 [#6&h0]
M  SAL  27  1  27
M  SED  27 [#1&h0]
M  SAL  28  1  28
M  SED  28 [#1&h0]
M  SAL  29  1  29
M  SED  29 [#1&h0]
M  SAL  30  1  30
M  SED  30 [#1&h0]
M  SAL  31  1  31
M  SED  31 [#1&h0]
M  SAL  32  1  32
M  SED  32 [#1&h0]
M  SAL  33  1  33
M  SED  33 [#1&h0]
M  SAL  34  1  34
M  SED  34 [#1&h0]
M  SAL  35  1  35
M  SED  35 [#1&h0]
M  SAL  36  1  36
M  SED  36 [#1&h0]
M  SAL  37  1  37
M  SED  37 [#1&h0]
M  SAL  38  1  38
M  SED  38 [#1&h0]
M  SAL  39  1  39
M  SED  39 [#1&h0]
M  SAL  40  1  40
M  SED  40 [#1&h0]
M  SAL  41  1  41
M  SED  41 [#1&h0]
M  SAL  42  1  42
M  SED  42 [#1&h0]
M  SAL  43  1  43
M  SED  43 [#1&h0]
M  SAL  44  1  44
M  SED  44 [#1&h0]
M  SAL  45  1  45
M  SED  45 [#1&h0]
M  SAL  46  1  46
M  SED  46 [#1&h0]
M  SAL  47  1  47
M  SED  47 [#1&h0]
M  SAL  48  1  48
M  SED  48 [#1&h0]
M  SAL  49  1  49
M  SED  49 [#1&h0]
M  SAL  50  1  50
M  SED  50 [#1&h0]
M  SAL  51  1  51
M  SED  51 [#1&h0]
M  END
>  <Activity>  (10) 
0.01

>  <Mapped(file=2032.csv.activities,property=Cached(PUBCHEM_COMPOUND_CID))>  (10) 
100

>  <MatchIndices>  (10) 
45 

>  <PUBCHEM_ATOM_DEF_STEREO_COUNT>  (10) 
0

>  <PUBCHEM_ATOM_UDEF_STEREO_COUNT>  (10) 
0

>  <PUBCHEM_BONDANNOTATIONS>  (10) 
12  14  8
12  15  8
14  17  8
15  18  8
17  19  8
18  19  8
20  21  8
20  22  8
21  23  8
22  24  8
23  25  8
24  25  8

>  <PUBCHEM_BOND_DEF_STEREO_COUNT>  (10) 
0

>  <PUBCHEM_BOND_UDEF_STEREO_COUNT>  (10) 
0

>  <PUBCHEM_CACTVS_COMPLEXITY>  (10) 
434

>  <PUBCHEM_CACTVS_HBOND_ACCEPTOR>  (10) 
3

>  <PUBCHEM_CACTVS_HBOND_DONOR>  (10) 
1

>  <PUBCHEM_CACTVS_ROTATABLE_BOND>  (10) 
6

>  <PUBCHEM_CACTVS_SUBSKEYS>  (10) 
AAADceB7MAAEAAAAAAAAAAAAAAAAAAAAAAA8YIAAAAAAAAABQAAAHgIQAAAADC7hmCYyBoPABACIAiFSEAKCCAAgJUAIiIBOD4gOJiOF8x+HOCjk1hGYqAeQwBAOBAABAAAACAAIAAIAAAAQAAAAAAAAAA==

>  <PUBCHEM_CACTVS_TAUTO_COUNT>  (10) 
2

>  <PUBCHEM_CACTVS_TPSA>  (10) 
41.6

>  <PUBCHEM_COMPONENT_COUNT>  (10) 
1

>  <PUBCHEM_COMPOUND_CANONICALIZED>  (10) 
1

>  <PUBCHEM_COMPOUND_CID>  (10) 
24982334

>  <PUBCHEM_COORDINATE_TYPE>  (10) 
1
5
255

>  <PUBCHEM_EXACT_MASS>  (10) 
372.160456

>  <PUBCHEM_HEAVY_ATOM_COUNT>  (10) 
26

>  <PUBCHEM_ISOTOPIC_ATOM_COUNT>  (10) 
0

>  <PUBCHEM_IUPAC_CAS_NAME>  (10) 
2-(2-chloro-5-methylphenoxy)-N-[1-(phenylmethyl)-4-piperidinyl]acetamide

>  <PUBCHEM_IUPAC_INCHI>  (10) 
InChI=1S/C21H25ClN2O2/c1-16-7-8-19(22)20(13-16)26-15-21(25)23-18-9-11-24(12-10-18)14-17-5-3-2-4-6-17/h2-8,13,18H,9-12,14-15H2,1H3,(H,23,25)

>  <PUBCHEM_IUPAC_INCHIKEY>  (10) 
GVQXOJZYXJOGBQ-UHFFFAOYSA-N

>  <PUBCHEM_IUPAC_NAME>  (10) 
N-(1-benzylpiperidin-4-yl)-2-(2-chloro-5-methylphenoxy)acetamide

>  <PUBCHEM_IUPAC_OPENEYE_NAME>  (10) 
N-(1-benzyl-4-piperidyl)-2-(2-chloro-5-methyl-phenoxy)acetamide

>  <PUBCHEM_IUPAC_SYSTEMATIC_NAME>  (10) 
2-(2-chloranyl-5-methyl-phenoxy)-N-[1-(phenylmethyl)piperidin-4-yl]ethanamide

>  <PUBCHEM_IUPAC_TRADITIONAL_NAME>  (10) 
N-(1-benzyl-4-piperidyl)-2-(2-chloro-5-methyl-phenoxy)acetamide

>  <PUBCHEM_MOLECULAR_FORMULA>  (10) 
C21H25ClN2O2

>  <PUBCHEM_MOLECULAR_WEIGHT>  (10) 
372.8884

>  <PUBCHEM_MONOISOTOPIC_WEIGHT>  (10) 
372.160456

>  <PUBCHEM_OPENEYE_CAN_SMILES>  (10) 
CC1=CC(=C(C=C1)Cl)OCC(=O)NC2CCN(CC2)CC3=CC=CC=C3

>  <PUBCHEM_OPENEYE_ISO_SMILES>  (10) 
CC1=CC(=C(C=C1)Cl)OCC(=O)NC2CCN(CC2)CC3=CC=CC=C3

>  <PUBCHEM_TOTAL_CHARGE>  (10) 
0

>  <PUBCHEM_XLOGP3_AA>  (10) 
4.3

$$$$
Largest isolated from Written by BCL::WriteToMDL,23640915
     RDKit          2D

 54 57  0 54  0  0  0  0  0  0999 V2000
   -5.7134   -1.7043    0.0000 S   0  0  0  0  0  0  0  0  0  0  0  0
    2.1433   -4.5885    0.0000 O   0  0  0  0  0  0  0  0  0  0  0  0
    2.5486    1.9373    0.0000 N   0  0  0  0  0  0  0  0  0  0  0  0
   -3.7630   -3.5321    0.0000 N   0  0  0  0  0  0  0  0  0  0  0  0
   -3.4307   -0.8798    0.0000 N   0  0  0  0  0  0  0  0  0  0  0  0
    3.5156    3.0840    0.0000 C   0  0  0  0  0  0  0  0  0  0  0  0
    1.0720    2.2014    0.0000 C   0  0  0  0  0  0  0  0  0  0  0  0
    3.0060    4.4948    0.0000 C   0  0  0  0  0  0  0  0  0  0  0  0
    0.5625    3.6122    0.0000 C   0  0  0  0  0  0  0  0  0  0  0  0
    1.5294    4.7589    0.0000 C   0  0  0  0  0  0  0  0  0  0  0  0
    3.0582    0.5265    0.0000 C   0  0  0  0  0  0  0  0  0  0  0  0
    3.5677   -0.8843    0.0000 C   0  0  0  0  0  0  0  0  0  0  0  0
    2.6007   -2.0310    0.0000 C   0  0  0  0  0  0  0  0  0  0  0  0
    5.0443   -1.1484    0.0000 C   0  0  0  0  0  0  0  0  0  0  0  0
    3.1103   -3.4418    0.0000 C   0  0  0  0  0  0  0  0  0  0  0  0
    5.5539   -2.5592    0.0000 C   0  0  0  0  0  0  0  0  0  0  0  0
    4.5869   -3.7059    0.0000 C   0  0  0  0  0  0  0  0  0  0  0  0
    0.6667   -4.3244    0.0000 C   0  0  0  0  0  0  0  0  0  0  0  0
   -0.8098   -4.0603    0.0000 C   0  0  0  0  0  0  0  0  0  0  0  0
   -2.2864   -3.7962    0.0000 C   0  0  0  0  0  0  0  0  0  0  0  0
   -4.2725   -2.1213    0.0000 C   0  0  0  0  0  0  0  0  0  0  0  0
   -5.7621   -0.2051    0.0000 C   0  0  0  0  0  0  0  0  0  0  0  0
   -4.3513    0.3045    0.0000 C   0  0  0  0  0  0  0  0  0  0  0  0
   -6.9088    0.7619    0.0000 C   0  0  0  0  0  0  0  0  0  0  0  0
   -4.0872    1.7810    0.0000 C   0  0  0  0  0  0  0  0  0  0  0  0
   -6.6447    2.2384    0.0000 C   0  0  0  0  0  0  0  0  0  0  0  0
   -5.2339    2.7480    0.0000 C   0  0  0  0  0  0  0  0  0  0  0  0
    0.8855    0.7130    0.0000 H   0  0  0  0  0  0  0  0  0  0  0  0
   -0.4058    1.9445    0.0000 H   0  0  0  0  0  0  0  0  0  0  0  0
    4.8165    3.8308    0.0000 H   0  0  0  0  0  0  0  0  0  0  0  0
    4.6101    2.0583    0.0000 H   0  0  0  0  0  0  0  0  0  0  0  0
   -0.7384    2.8654    0.0000 H   0  0  0  0  0  0  0  0  0  0  0  0
   -0.3989    4.7636    0.0000 H   0  0  0  0  0  0  0  0  0  0  0  0
    3.0097    5.9948    0.0000 H   0  0  0  0  0  0  0  0  0  0  0  0
    4.4839    4.7516    0.0000 H   0  0  0  0  0  0  0  0  0  0  0  0
    0.2323    5.5121    0.0000 H   0  0  0  0  0  0  0  0  0  0  0  0
    2.0459    6.1671    0.0000 H   0  0  0  0  0  0  0  0  0  0  0  0
    1.7200   -0.1513    0.0000 H   0  0  0  0  0  0  0  0  0  0  0  0
    4.5205    0.8603    0.0000 H   0  0  0  0  0  0  0  0  0  0  0  0
    1.1242   -1.7669    0.0000 H   0  0  0  0  0  0  0  0  0  0  0  0
    6.0113   -0.0017    0.0000 H   0  0  0  0  0  0  0  0  0  0  0  0
    7.0304   -2.8233    0.0000 H   0  0  0  0  0  0  0  0  0  0  0  0
    5.0964   -5.1167    0.0000 H   0  0  0  0  0  0  0  0  0  0  0  0
    0.9308   -2.8478    0.0000 H   0  0  0  0  0  0  0  0  0  0  0  0
    0.4026   -5.8010    0.0000 H   0  0  0  0  0  0  0  0  0  0  0  0
   -1.0739   -5.5369    0.0000 H   0  0  0  0  0  0  0  0  0  0  0  0
   -0.5457   -2.5837    0.0000 H   0  0  0  0  0  0  0  0  0  0  0  0
   -2.5505   -5.2728    0.0000 H   0  0  0  0  0  0  0  0  0  0  0  0
   -2.0223   -2.3196    0.0000 H   0  0  0  0  0  0  0  0  0  0  0  0
   -4.7300   -4.6788    0.0000 H   0  0  0  0  0  0  0  0  0  0  0  0
   -8.3196    0.2523    0.0000 H   0  0  0  0  0  0  0  0  0  0  0  0
   -2.6764    2.2906    0.0000 H   0  0  0  0  0  0  0  0  0  0  0  0
   -7.7914    3.2054    0.0000 H   0  0  0  0  0  0  0  0  0  0  0  0
   -4.9698    4.2246    0.0000 H   0  0  0  0  0  0  0  0  0  0  0  0
  1 21  1  0
  1 22  1  0
  2 15  1  0
  2 18  1  0
  3  6  1  0
  3  7  1  0
  3 11  1  0
  4 20  1  0
  4 21  1  0
  4 50  1  0
  5 21  2  0
  5 23  1  0
  6  8  1  0
  6 30  1  0
  6 31  1  0
  7  9  1  0
  7 28  1  0
  7 29  1  0
  8 10  1  0
  8 34  1  0
  8 35  1  0
  9 10  1  0
  9 32  1  0
  9 33  1  0
 10 36  1  0
 10 37  1  0
 11 12  1  0
 11 38  1  0
 11 39  1  0
 12 13  2  0
 12 14  1  0
 13 15  1  0
 13 40  1  0
 14 16  2  0
 14 41  1  0
 15 17  2  0
 16 17  1  0
 16 42  1  0
 17 43  1  0
 18 19  1  0
 18 44  1  0
 18 45  1  0
 19 20  1  0
 19 46  1  0
 19 47  1  0
 20 48  1  0
 20 49  1  0
 22 23  2  0
 22 24  1  0
 23 25  1  0
 24 26  2  0
 24 51  1  0
 25 27  2  0
 25 52  1  0
 26 27  1  0
 26 53  1  0
 27 54  1  0
M  STY  8   1 DAT   2 DAT   3 DAT   4 DAT   5 DAT   6 DAT   7 DAT   8 DAT
M  STY  8   9 DAT  10 DAT  11 DAT  12 DAT  13 DAT  14 DAT  15 DAT  16 DAT
M  STY  8  17 DAT  18 DAT  19 DAT  20 DAT  21 DAT  22 DAT  23 DAT  24 DAT
M  STY  8  25 DAT  26 DAT  27 DAT  28 DAT  29 DAT  30 DAT  31 DAT  32 DAT
M  STY  8  33 DAT  34 DAT  35 DAT  36 DAT  37 DAT  38 DAT  39 DAT  40 DAT
M  STY  8  41 DAT  42 DAT  43 DAT  44 DAT  45 DAT  46 DAT  47 DAT  48 DAT
M  STY  6  49 DAT  50 DAT  51 DAT  52 DAT  53 DAT  54 DAT
M  SAL   1  1   1
M  SED   1 [#16&h0]
M  SAL   2  1   2
M  SED   2 [#8&h0]
M  SAL   3  1   3
M  SED   3 [#7&h0]
M  SAL   4  1   4
M  SED   4 [#7&h0]
M  SAL   5  1   5
M  SED   5 [#7&h0]
M  SAL   6  1   6
M  SED   6 [#6&h0]
M  SAL   7  1   7
M  SED   7 [#6&h0]
M  SAL   8  1   8
M  SED   8 [#6&h0]
M  SAL   9  1   9
M  SED   9 [#6&h0]
M  SAL  10  1  10
M  SED  10 [#6&h0]
M  SAL  11  1  11
M  SED  11 [#6&h0]
M  SAL  12  1  12
M  SED  12 [#6&h0]
M  SAL  13  1  13
M  SED  13 [#6&h0]
M  SAL  14  1  14
M  SED  14 [#6&h0]
M  SAL  15  1  15
M  SED  15 [#6&h0]
M  SAL  16  1  16
M  SED  16 [#6&h0]
M  SAL  17  1  17
M  SED  17 [#6&h0]
M  SAL  18  1  18
M  SED  18 [#6&h0]
M  SAL  19  1  19
M  SED  19 [#6&h0]
M  SAL  20  1  20
M  SED  20 [#6&h0]
M  SAL  21  1  21
M  SED  21 [#6&h0]
M  SAL  22  1  22
M  SED  22 [#6&h0]
M  SAL  23  1  23
M  SED  23 [#6&h0]
M  SAL  24  1  24
M  SED  24 [#6&h0]
M  SAL  25  1  25
M  SED  25 [#6&h0]
M  SAL  26  1  26
M  SED  26 [#6&h0]
M  SAL  27  1  27
M  SED  27 [#6&h0]
M  SAL  28  1  28
M  SED  28 [#1&h0]
M  SAL  29  1  29
M  SED  29 [#1&h0]
M  SAL  30  1  30
M  SED  30 [#1&h0]
M  SAL  31  1  31
M  SED  31 [#1&h0]
M  SAL  32  1  32
M  SED  32 [#1&h0]
M  SAL  33  1  33
M  SED  33 [#1&h0]
M  SAL  34  1  34
M  SED  34 [#1&h0]
M  SAL  35  1  35
M  SED  35 [#1&h0]
M  SAL  36  1  36
M  SED  36 [#1&h0]
M  SAL  37  1  37
M  SED  37 [#1&h0]
M  SAL  38  1  38
M  SED  38 [#1&h0]
M  SAL  39  1  39
M  SED  39 [#1&h0]
M  SAL  40  1  40
M  SED  40 [#1&h0]
M  SAL  41  1  41
M  SED  41 [#1&h0]
M  SAL  42  1  42
M  SED  42 [#1&h0]
M  SAL  43  1  43
M  SED  43 [#1&h0]
M  SAL  44  1  44
M  SED  44 [#1&h0]
M  SAL  45  1  45
M  SED  45 [#1&h0]
M  SAL  46  1  46
M  SED  46 [#1&h0]
M  SAL  47  1  47
M  SED  47 [#1&h0]
M  SAL  48  1  48
M  SED  48 [#1&h0]
M  SAL  49  1  49
M  SED  49 [#1&h0]
M  SAL  50  1  50
M  SED  50 [#1&h0]
M  SAL  51  1  51
M  SED  51 [#1&h0]
M  SAL  52  1  52
M  SED  52 [#1&h0]
M  SAL  53  1  53
M  SED  53 [#1&h0]
M  SAL  54  1  54
M  SED  54 [#1&h0]
M  END
>  <Activity>  (11) 
0.01

>  <Mapped(file=2032.csv.activities,property=Cached(PUBCHEM_COMPOUND_CID))>  (11) 
100

>  <MatchIndices>  (11) 
60 

>  <PUBCHEM_ATOM_DEF_STEREO_COUNT>  (11) 
0

>  <PUBCHEM_ATOM_UDEF_STEREO_COUNT>  (11) 
0

>  <PUBCHEM_BONDANNOTATIONS>  (11) 
1  25  8
1  26  8
16  17  8
16  18  8
17  19  8
18  20  8
19  21  8
20  21  8
26  27  8
26  28  8
27  29  8
28  30  8
29  31  8
30  31  8
9  25  8
9  27  8

>  <PUBCHEM_BOND_DEF_STEREO_COUNT>  (11) 
1

>  <PUBCHEM_BOND_UDEF_STEREO_COUNT>  (11) 
0

>  <PUBCHEM_CACTVS_COMPLEXITY>  (11) 
551

>  <PUBCHEM_CACTVS_HBOND_ACCEPTOR>  (11) 
7

>  <PUBCHEM_CACTVS_HBOND_DONOR>  (11) 
3

>  <PUBCHEM_CACTVS_ROTATABLE_BOND>  (11) 
10

>  <PUBCHEM_CACTVS_SUBSKEYS>  (11) 
AAADceB7OABAAAAAAAAAAAAAAAAAAWAAAAA8YIAAAAAAAFgB9AAAHgQQCAAADAzh3gYx37PIFgisAyTybACD+KlhKjlJmLw+bNiMJqLkuZuGOCju0BPI+aewwBAOAAABAAAAAQAAAAIAAAACAAAAAAAAAA==

>  <PUBCHEM_CACTVS_TAUTO_COUNT>  (11) 
2

>  <PUBCHEM_CACTVS_TPSA>  (11) 
140

>  <PUBCHEM_COMPONENT_COUNT>  (11) 
2

>  <PUBCHEM_COMPOUND_CANONICALIZED>  (11) 
1

>  <PUBCHEM_COMPOUND_CID>  (11) 
23640915

>  <PUBCHEM_COORDINATE_TYPE>  (11) 
1
5
255

>  <PUBCHEM_EXACT_MASS>  (11) 
497.198442

>  <PUBCHEM_HEAVY_ATOM_COUNT>  (11) 
35

>  <PUBCHEM_ISOTOPIC_ATOM_COUNT>  (11) 
0

>  <PUBCHEM_IUPAC_CAS_NAME>  (11) 
(Z)-2-butenedioic acid; N-[3-[3-(1-piperidinylmethyl)phenoxy]propyl]-1,3-benzothiazol-2-amine

>  <PUBCHEM_IUPAC_INCHI>  (11) 
InChI=1S/C22H27N3OS.C4H4O4/c1-4-13-25(14-5-1)17-18-8-6-9-19(16-18)26-15-7-12-23-22-24-20-10-2-3-11-21(20)27-22;5-3(6)1-2-4(7)8/h2-3,6,8-11,16H,1,4-5,7,12-15,17H2,(H,23,24);1-2H,(H,5,6)(H,7,8)/b;2-1-

>  <PUBCHEM_IUPAC_INCHIKEY>  (11) 
ZKHYAKSUYKITHP-BTJKTKAUSA-N

>  <PUBCHEM_IUPAC_NAME>  (11) 
(Z)-but-2-enedioic acid; N-[3-[3-(piperidin-1-ylmethyl)phenoxy]propyl]-1,3-benzothiazol-2-amine

>  <PUBCHEM_IUPAC_OPENEYE_NAME>  (11) 
maleic acid; N-[3-[3-(1-piperidylmethyl)phenoxy]propyl]-1,3-benzothiazol-2-amine

>  <PUBCHEM_IUPAC_SYSTEMATIC_NAME>  (11) 
(Z)-but-2-enedioic acid; N-[3-[3-(piperidin-1-ylmethyl)phenoxy]propyl]-1,3-benzothiazol-2-amine

>  <PUBCHEM_IUPAC_TRADITIONAL_NAME>  (11) 
1,3-benzothiazol-2-yl-[3-[3-(piperidinomethyl)phenoxy]propyl]amine; maleic acid

>  <PUBCHEM_MOLECULAR_FORMULA>  (11) 
C26H31N3O5S

>  <PUBCHEM_MOLECULAR_WEIGHT>  (11) 
497.60644

>  <PUBCHEM_MONOISOTOPIC_WEIGHT>  (11) 
497.198442

>  <PUBCHEM_OPENEYE_CAN_SMILES>  (11) 
C1CCN(CC1)CC2=CC(=CC=C2)OCCCNC3=NC4=CC=CC=C4S3.C(=CC(=O)O)C(=O)O

>  <PUBCHEM_OPENEYE_ISO_SMILES>  (11) 
C1CCN(CC1)CC2=CC(=CC=C2)OCCCNC3=NC4=CC=CC=C4S3.C(=C\C(=O)O)\C(=O)O

>  <PUBCHEM_TOTAL_CHARGE>  (11) 
0

$$$$
Largest isolated from Written by BCL::WriteToMDL,6485989
     RDKit          2D

 49 52  0 49  0  0  0  0  0  0999 V2000
    0.1113    3.5594    0.0000 F   0  0  0  0  0  0  0  0  0  0  0  0
    0.4945   -0.3907    0.0000 O   0  0  0  0  0  0  0  0  0  0  0  0
    3.4815   -0.6705    0.0000 O   0  0  0  0  0  0  0  0  0  0  0  0
   -8.1514    2.9841    0.0000 O   0  0  0  0  0  0  0  0  0  0  0  0
   -2.7347   -2.6977    0.0000 N   0  0  0  0  0  0  0  0  0  0  0  0
   -6.9110    0.6163    0.0000 N   0  0  0  0  0  0  0  0  0  0  0  0
   -5.5068    2.5958    0.0000 N   0  0  0  0  0  0  0  0  0  0  0  0
   -1.2412   -2.8376    0.0000 C   0  0  0  0  0  0  0  0  0  0  0  0
    0.2522   -2.9775    0.0000 C   0  0  0  0  0  0  0  0  0  0  0  0
   -3.3603   -1.3343    0.0000 C   0  0  0  0  0  0  0  0  0  0  0  0
   -5.4793    0.1689    0.0000 C   0  0  0  0  0  0  0  0  0  0  0  0
   -4.6114    1.3923    0.0000 C   0  0  0  0  0  0  0  0  0  0  0  0
    1.1201   -1.7541    0.0000 C   0  0  0  0  0  0  0  0  0  0  0  0
   -4.8537   -1.1944    0.0000 C   0  0  0  0  0  0  0  0  0  0  0  0
   -2.4924   -0.1109    0.0000 C   0  0  0  0  0  0  0  0  0  0  0  0
   -3.1180    1.2524    0.0000 C   0  0  0  0  0  0  0  0  0  0  0  0
    0.8778   -4.3408    0.0000 C   0  0  0  0  0  0  0  0  0  0  0  0
    2.6136   -1.8940    0.0000 C   0  0  0  0  0  0  0  0  0  0  0  0
   -6.9280    2.1162    0.0000 C   0  0  0  0  0  0  0  0  0  0  0  0
    1.3624    0.8327    0.0000 C   0  0  0  0  0  0  0  0  0  0  0  0
    2.3712   -4.4807    0.0000 C   0  0  0  0  0  0  0  0  0  0  0  0
    3.2391   -3.2573    0.0000 C   0  0  0  0  0  0  0  0  0  0  0  0
    2.2303    2.0561    0.0000 C   0  0  0  0  0  0  0  0  0  0  0  0
    1.6048    3.4194    0.0000 C   0  0  0  0  0  0  0  0  0  0  0  0
    3.7238    1.9162    0.0000 C   0  0  0  0  0  0  0  0  0  0  0  0
    2.4726    4.6429    0.0000 C   0  0  0  0  0  0  0  0  0  0  0  0
    4.5917    3.1396    0.0000 C   0  0  0  0  0  0  0  0  0  0  0  0
    3.9661    4.5030    0.0000 C   0  0  0  0  0  0  0  0  0  0  0  0
    4.9749   -0.8104    0.0000 C   0  0  0  0  0  0  0  0  0  0  0  0
   -1.3812   -4.3310    0.0000 H   0  0  0  0  0  0  0  0  0  0  0  0
   -1.1013   -1.3441    0.0000 H   0  0  0  0  0  0  0  0  0  0  0  0
   -3.6026   -3.9211    0.0000 H   0  0  0  0  0  0  0  0  0  0  0  0
   -5.7216   -2.4179    0.0000 H   0  0  0  0  0  0  0  0  0  0  0  0
   -0.9989   -0.2508    0.0000 H   0  0  0  0  0  0  0  0  0  0  0  0
   -2.2501    2.4758    0.0000 H   0  0  0  0  0  0  0  0  0  0  0  0
    0.0099   -5.5642    0.0000 H   0  0  0  0  0  0  0  0  0  0  0  0
   -8.1145   -0.2791    0.0000 H   0  0  0  0  0  0  0  0  0  0  0  0
   -5.0594    4.0275    0.0000 H   0  0  0  0  0  0  0  0  0  0  0  0
    0.1390    1.7006    0.0000 H   0  0  0  0  0  0  0  0  0  0  0  0
    2.5859   -0.0352    0.0000 H   0  0  0  0  0  0  0  0  0  0  0  0
    2.9968   -5.8440    0.0000 H   0  0  0  0  0  0  0  0  0  0  0  0
    4.7326   -3.3972    0.0000 H   0  0  0  0  0  0  0  0  0  0  0  0
    4.3613    0.8819    0.0000 H   0  0  0  0  0  0  0  0  0  0  0  0
    1.8471    6.0062    0.0000 H   0  0  0  0  0  0  0  0  0  0  0  0
    6.0851    2.9997    0.0000 H   0  0  0  0  0  0  0  0  0  0  0  0
    4.8340    5.7264    0.0000 H   0  0  0  0  0  0  0  0  0  0  0  0
    5.2349    0.3764    0.0000 H   0  0  0  0  0  0  0  0  0  0  0  0
    4.8350   -2.3039    0.0000 H   0  0  0  0  0  0  0  0  0  0  0  0
    6.4684   -0.9503    0.0000 H   0  0  0  0  0  0  0  0  0  0  0  0
  1 24  1  0
  2 13  1  0
  2 20  1  0
  3 18  1  0
  3 29  1  0
  4 19  2  0
  5  8  1  0
  5 10  1  0
  5 32  1  0
  6 11  1  0
  6 19  1  0
  6 37  1  0
  7 12  1  0
  7 19  1  0
  7 38  1  0
  8  9  1  0
  8 30  1  0
  8 31  1  0
  9 13  1  0
  9 17  2  0
 10 14  2  0
 10 15  1  0
 11 12  2  0
 11 14  1  0
 12 16  1  0
 13 18  2  0
 14 33  1  0
 15 16  2  0
 15 34  1  0
 16 35  1  0
 17 21  1  0
 17 36  1  0
 18 22  1  0
 20 23  1  0
 20 39  1  0
 20 40  1  0
 21 22  2  0
 21 41  1  0
 22 42  1  0
 23 24  2  0
 23 25  1  0
 24 26  1  0
 25 27  2  0
 25 43  1  0
 26 28  2  0
 26 44  1  0
 27 28  1  0
 27 45  1  0
 28 46  1  0
 29 47  1  0
 29 48  1  0
 29 49  1  0
M  STY  8   1 DAT   2 DAT   3 DAT   4 DAT   5 DAT   6 DAT   7 DAT   8 DAT
M  STY  8   9 DAT  10 DAT  11 DAT  12 DAT  13 DAT  14 DAT  15 DAT  16 DAT
M  STY  8  17 DAT  18 DAT  19 DAT  20 DAT  21 DAT  22 DAT  23 DAT  24 DAT
M  STY  8  25 DAT  26 DAT  27 DAT  28 DAT  29 DAT  30 DAT  31 DAT  32 DAT
M  STY  8  33 DAT  34 DAT  35 DAT  36 DAT  37 DAT  38 DAT  39 DAT  40 DAT
M  STY  8  41 DAT  42 DAT  43 DAT  44 DAT  45 DAT  46 DAT  47 DAT  48 DAT
M  STY  1  49 DAT
M  SAL   1  1   1
M  SED   1 [#9&h0]
M  SAL   2  1   2
M  SED   2 [#8&h0]
M  SAL   3  1   3
M  SED   3 [#8&h0]
M  SAL   4  1   4
M  SED   4 [#8&h0]
M  SAL   5  1   5
M  SED   5 [#7&h0]
M  SAL   6  1   6
M  SED   6 [#7&h0]
M  SAL   7  1   7
M  SED   7 [#7&h0]
M  SAL   8  1   8
M  SED   8 [#6&h0]
M  SAL   9  1   9
M  SED   9 [#6&h0]
M  SAL  10  1  10
M  SED  10 [#6&h0]
M  SAL  11  1  11
M  SED  11 [#6&h0]
M  SAL  12  1  12
M  SED  12 [#6&h0]
M  SAL  13  1  13
M  SED  13 [#6&h0]
M  SAL  14  1  14
M  SED  14 [#6&h0]
M  SAL  15  1  15
M  SED  15 [#6&h0]
M  SAL  16  1  16
M  SED  16 [#6&h0]
M  SAL  17  1  17
M  SED  17 [#6&h0]
M  SAL  18  1  18
M  SED  18 [#6&h0]
M  SAL  19  1  19
M  SED  19 [#6&h0]
M  SAL  20  1  20
M  SED  20 [#6&h0]
M  SAL  21  1  21
M  SED  21 [#6&h0]
M  SAL  22  1  22
M  SED  22 [#6&h0]
M  SAL  23  1  23
M  SED  23 [#6&h0]
M  SAL  24  1  24
M  SED  24 [#6&h0]
M  SAL  25  1  25
M  SED  25 [#6&h0]
M  SAL  26  1  26
M  SED  26 [#6&h0]
M  SAL  27  1  27
M  SED  27 [#6&h0]
M  SAL  28  1  28
M  SED  28 [#6&h0]
M  SAL  29  1  29
M  SED  29 [#6&h0]
M  SAL  30  1  30
M  SED  30 [#1&h0]
M  SAL  31  1  31
M  SED  31 [#1&h0]
M  SAL  32  1  32
M  SED  32 [#1&h0]
M  SAL  33  1  33
M  SED  33 [#1&h0]
M  SAL  34  1  34
M  SED  34 [#1&h0]
M  SAL  35  1  35
M  SED  35 [#1&h0]
M  SAL  36  1  36
M  SED  36 [#1&h0]
M  SAL  37  1  37
M  SED  37 [#1&h0]
M  SAL  38  1  38
M  SED  38 [#1&h0]
M  SAL  39  1  39
M  SED  39 [#1&h0]
M  SAL  40  1  40
M  SED  40 [#1&h0]
M  SAL  41  1  41
M  SED  41 [#1&h0]
M  SAL  42  1  42
M  SED  42 [#1&h0]
M  SAL  43  1  43
M  SED  43 [#1&h0]
M  SAL  44  1  44
M  SED  44 [#1&h0]
M  SAL  45  1  45
M  SED  45 [#1&h0]
M  SAL  46  1  46
M  SED  46 [#1&h0]
M  SAL  47  1  47
M  SED  47 [#1&h0]
M  SAL  48  1  48
M  SED  48 [#1&h0]
M  SAL  49  1  49
M  SED  49 [#1&h0]
M  END
>  <Activity>  (12) 
0.01

>  <Mapped(file=2032.csv.activities,property=Cached(PUBCHEM_COMPOUND_CID))>  (12) 
100

>  <MatchIndices>  (12) 
219 

>  <PUBCHEM_ATOM_DEF_STEREO_COUNT>  (12) 
0

>  <PUBCHEM_ATOM_UDEF_STEREO_COUNT>  (12) 
0

>  <PUBCHEM_BONDANNOTATIONS>  (12) 
10  14  8
10  15  8
11  12  8
11  14  8
12  16  8
13  18  8
15  16  8
17  21  8
18  22  8
21  22  8
23  24  8
23  25  8
24  26  8
25  27  8
26  28  8
27  28  8
6  11  8
6  19  8
7  12  8
7  19  8
9  13  8
9  17  8

>  <PUBCHEM_BOND_DEF_STEREO_COUNT>  (12) 
0

>  <PUBCHEM_BOND_UDEF_STEREO_COUNT>  (12) 
0

>  <PUBCHEM_CACTVS_COMPLEXITY>  (12) 
551

>  <PUBCHEM_CACTVS_HBOND_ACCEPTOR>  (12) 
5

>  <PUBCHEM_CACTVS_HBOND_DONOR>  (12) 
3

>  <PUBCHEM_CACTVS_ROTATABLE_BOND>  (12) 
7

>  <PUBCHEM_CACTVS_SUBSKEYS>  (12) 
AAADceB7MQAAAAAAAAAAAAAAAAAAAWAAAAAwYMAAAAAAAFgBUAAAHwAQAAAADAzhmA4zxoLABACIAiRCUACCCAAhIgAIiIAO/IiNZiLE8duWOCru1BPK6CewwDAOAACBAAQIQCAAAQIACBCAQAAAAAAAAA==

>  <PUBCHEM_CACTVS_TAUTO_COUNT>  (12) 
3

>  <PUBCHEM_CACTVS_TPSA>  (12) 
71.6

>  <PUBCHEM_COMPONENT_COUNT>  (12) 
1

>  <PUBCHEM_COMPOUND_CANONICALIZED>  (12) 
1

>  <PUBCHEM_COMPOUND_CID>  (12) 
6485989

>  <PUBCHEM_COORDINATE_TYPE>  (12) 
1
5
255

>  <PUBCHEM_EXACT_MASS>  (12) 
393.14887

>  <PUBCHEM_HEAVY_ATOM_COUNT>  (12) 
29

>  <PUBCHEM_ISOTOPIC_ATOM_COUNT>  (12) 
0

>  <PUBCHEM_IUPAC_CAS_NAME>  (12) 
5-[[2-[(2-fluorophenyl)methoxy]-3-methoxyphenyl]methylamino]-1,3-dihydrobenzimidazol-2-one

>  <PUBCHEM_IUPAC_INCHI>  (12) 
InChI=1S/C22H20FN3O3/c1-28-20-8-4-6-14(21(20)29-13-15-5-2-3-7-17(15)23)12-24-16-9-10-18-19(11-16)26-22(27)25-18/h2-11,24H,12-13H2,1H3,(H2,25,26,27)

>  <PUBCHEM_IUPAC_INCHIKEY>  (12) 
LBUKEOHIRXWIGC-UHFFFAOYSA-N

>  <PUBCHEM_IUPAC_NAME>  (12) 
5-[[2-[(2-fluorophenyl)methoxy]-3-methoxyphenyl]methylamino]-1,3-dihydrobenzimidazol-2-one

>  <PUBCHEM_IUPAC_OPENEYE_NAME>  (12) 
5-[[2-[(2-fluorophenyl)methoxy]-3-methoxy-phenyl]methylamino]-1,3-dihydrobenzimidazol-2-one

>  <PUBCHEM_IUPAC_SYSTEMATIC_NAME>  (12) 
5-[[2-[(2-fluorophenyl)methoxy]-3-methoxy-phenyl]methylamino]-1,3-dihydrobenzimidazol-2-one

>  <PUBCHEM_IUPAC_TRADITIONAL_NAME>  (12) 
5-[[2-(2-fluorobenzyl)oxy-3-methoxy-benzyl]amino]-1,3-dihydrobenzimidazol-2-one

>  <PUBCHEM_MOLECULAR_FORMULA>  (12) 
C22H20FN3O3

>  <PUBCHEM_MOLECULAR_WEIGHT>  (12) 
393.410903

>  <PUBCHEM_MONOISOTOPIC_WEIGHT>  (12) 
393.14887

>  <PUBCHEM_OPENEYE_CAN_SMILES>  (12) 
COC1=CC=CC(=C1OCC2=CC=CC=C2F)CNC3=CC4=C(C=C3)NC(=O)N4

>  <PUBCHEM_OPENEYE_ISO_SMILES>  (12) 
COC1=CC=CC(=C1OCC2=CC=CC=C2F)CNC3=CC4=C(C=C3)NC(=O)N4

>  <PUBCHEM_TOTAL_CHARGE>  (12) 
0

>  <PUBCHEM_XLOGP3_AA>  (12) 
3.6

$$$$
Largest isolated from Written by BCL::WriteToMDL,2972188
     RDKit          2D

 38 40  0 38  0  0  0  0  0  0999 V2000
    5.0825    0.4586    0.0000 N   0  0  0  0  0  0  0  0  0  0  0  0
   -0.3495   -2.0897    0.0000 N   0  0  0  0  0  0  0  0  0  0  0  0
   -2.9382   -1.8693    0.0000 N   0  0  0  0  0  0  0  0  0  0  0  0
   -1.4529    0.2624    0.0000 N   0  0  0  0  0  0  0  0  0  0  0  0
   -2.5564    2.6145    0.0000 N   0  0  0  0  0  0  0  0  0  0  0  0
    3.7245   -0.1785    0.0000 C   0  0  0  0  0  0  0  0  0  0  0  0
    1.0085   -1.4527    0.0000 C   0  0  0  0  0  0  0  0  0  0  0  0
   -4.0416    0.4828    0.0000 C   0  0  0  0  0  0  0  0  0  0  0  0
   -4.1689   -1.0117    0.0000 C   0  0  0  0  0  0  0  0  0  0  0  0
    3.5972   -1.6731    0.0000 C   0  0  0  0  0  0  0  0  0  0  0  0
    2.4938    0.6790    0.0000 C   0  0  0  0  0  0  0  0  0  0  0  0
    2.2392   -2.3102    0.0000 C   0  0  0  0  0  0  0  0  0  0  0  0
    1.1358    0.0419    0.0000 C   0  0  0  0  0  0  0  0  0  0  0  0
   -1.5802   -1.2322    0.0000 C   0  0  0  0  0  0  0  0  0  0  0  0
   -2.6837    1.1199    0.0000 C   0  0  0  0  0  0  0  0  0  0  0  0
   -5.2724    1.3404    0.0000 C   0  0  0  0  0  0  0  0  0  0  0  0
   -5.5269   -1.6488    0.0000 C   0  0  0  0  0  0  0  0  0  0  0  0
    6.3132   -0.3990    0.0000 C   0  0  0  0  0  0  0  0  0  0  0  0
    5.2097    1.9531    0.0000 C   0  0  0  0  0  0  0  0  0  0  0  0
   -6.6304    0.7033    0.0000 C   0  0  0  0  0  0  0  0  0  0  0  0
   -6.7576   -0.7913    0.0000 C   0  0  0  0  0  0  0  0  0  0  0  0
    4.8279   -2.5306    0.0000 H   0  0  0  0  0  0  0  0  0  0  0  0
    2.6210    2.1736    0.0000 H   0  0  0  0  0  0  0  0  0  0  0  0
    2.1119   -3.8048    0.0000 H   0  0  0  0  0  0  0  0  0  0  0  0
   -0.0949    0.8995    0.0000 H   0  0  0  0  0  0  0  0  0  0  0  0
   -0.4768   -3.5843    0.0000 H   0  0  0  0  0  0  0  0  0  0  0  0
   -5.1451    2.8350    0.0000 H   0  0  0  0  0  0  0  0  0  0  0  0
   -5.6542   -3.1434    0.0000 H   0  0  0  0  0  0  0  0  0  0  0  0
    7.1707    0.8317    0.0000 H   0  0  0  0  0  0  0  0  0  0  0  0
    6.7043    1.8259    0.0000 H   0  0  0  0  0  0  0  0  0  0  0  0
    3.7152    2.0804    0.0000 H   0  0  0  0  0  0  0  0  0  0  0  0
    5.3370    3.4477    0.0000 H   0  0  0  0  0  0  0  0  0  0  0  0
    5.4557   -1.6297    0.0000 H   0  0  0  0  0  0  0  0  0  0  0  0
    7.5439   -1.2565    0.0000 H   0  0  0  0  0  0  0  0  0  0  0  0
   -7.8611    1.5608    0.0000 H   0  0  0  0  0  0  0  0  0  0  0  0
   -8.1156   -1.4284    0.0000 H   0  0  0  0  0  0  0  0  0  0  0  0
   -1.1984    3.2516    0.0000 H   0  0  0  0  0  0  0  0  0  0  0  0
   -3.7871    3.4720    0.0000 H   0  0  0  0  0  0  0  0  0  0  0  0
  1  6  1  0
  1 18  1  0
  1 19  1  0
  2  7  1  0
  2 14  1  0
  2 26  1  0
  3  9  2  0
  3 14  1  0
  4 14  2  0
  4 15  1  0
  5 15  1  0
  5 37  1  0
  5 38  1  0
  6 10  2  0
  6 11  1  0
  7 12  2  0
  7 13  1  0
  8  9  1  0
  8 15  2  0
  8 16  1  0
  9 17  1  0
 10 12  1  0
 10 22  1  0
 11 13  2  0
 11 23  1  0
 12 24  1  0
 13 25  1  0
 16 20  2  0
 16 27  1  0
 17 21  2  0
 17 28  1  0
 18 29  1  0
 18 33  1  0
 18 34  1  0
 19 30  1  0
 19 31  1  0
 19 32  1  0
 20 21  1  0
 20 35  1  0
 21 36  1  0
M  STY  8   1 DAT   2 DAT   3 DAT   4 DAT   5 DAT   6 DAT   7 DAT   8 DAT
M  STY  8   9 DAT  10 DAT  11 DAT  12 DAT  13 DAT  14 DAT  15 DAT  16 DAT
M  STY  8  17 DAT  18 DAT  19 DAT  20 DAT  21 DAT  22 DAT  23 DAT  24 DAT
M  STY  8  25 DAT  26 DAT  27 DAT  28 DAT  29 DAT  30 DAT  31 DAT  32 DAT
M  STY  6  33 DAT  34 DAT  35 DAT  36 DAT  37 DAT  38 DAT
M  SAL   1  1   1
M  SED   1 [#7&h0]
M  SAL   2  1   2
M  SED   2 [#7&h0]
M  SAL   3  1   3
M  SED   3 [#7&h0]
M  SAL   4  1   4
M  SED   4 [#7&h0]
M  SAL   5  1   5
M  SED   5 [#7&h0]
M  SAL   6  1   6
M  SED   6 [#6&h0]
M  SAL   7  1   7
M  SED   7 [#6&h0]
M  SAL   8  1   8
M  SED   8 [#6&h0]
M  SAL   9  1   9
M  SED   9 [#6&h0]
M  SAL  10  1  10
M  SED  10 [#6&h0]
M  SAL  11  1  11
M  SED  11 [#6&h0]
M  SAL  12  1  12
M  SED  12 [#6&h0]
M  SAL  13  1  13
M  SED  13 [#6&h0]
M  SAL  14  1  14
M  SED  14 [#6&h0]
M  SAL  15  1  15
M  SED  15 [#6&h0]
M  SAL  16  1  16
M  SED  16 [#6&h0]
M  SAL  17  1  17
M  SED  17 [#6&h0]
M  SAL  18  1  18
M  SED  18 [#6&h0]
M  SAL  19  1  19
M  SED  19 [#6&h0]
M  SAL  20  1  20
M  SED  20 [#6&h0]
M  SAL  21  1  21
M  SED  21 [#6&h0]
M  SAL  22  1  22
M  SED  22 [#1&h0]
M  SAL  23  1  23
M  SED  23 [#1&h0]
M  SAL  24  1  24
M  SED  24 [#1&h0]
M  SAL  25  1  25
M  SED  25 [#1&h0]
M  SAL  26  1  26
M  SED  26 [#1&h0]
M  SAL  27  1  27
M  SED  27 [#1&h0]
M  SAL  28  1  28
M  SED  28 [#1&h0]
M  SAL  29  1  29
M  SED  29 [#1&h0]
M  SAL  30  1  30
M  SED  30 [#1&h0]
M  SAL  31  1  31
M  SED  31 [#1&h0]
M  SAL  32  1  32
M  SED  32 [#1&h0]
M  SAL  33  1  33
M  SED  33 [#1&h0]
M  SAL  34  1  34
M  SED  34 [#1&h0]
M  SAL  35  1  35
M  SED  35 [#1&h0]
M  SAL  36  1  36
M  SED  36 [#1&h0]
M  SAL  37  1  37
M  SED  37 [#1&h0]
M  SAL  38  1  38
M  SED  38 [#1&h0]
M  END
>  <Activity>  (13) 
0.01

>  <Mapped(file=2032.csv.activities,property=Cached(PUBCHEM_COMPOUND_CID))>  (13) 
100

>  <MatchIndices>  (13) 
22 

>  <PUBCHEM_ATOM_DEF_STEREO_COUNT>  (13) 
0

>  <PUBCHEM_ATOM_UDEF_STEREO_COUNT>  (13) 
0

>  <PUBCHEM_BONDANNOTATIONS>  (13) 
10  18  8
11  13  8
12  14  8
17  21  8
18  22  8
21  22  8
4  10  8
4  15  8
5  15  8
5  16  8
7  11  8
7  12  8
8  13  8
8  14  8
9  10  8
9  16  8
9  17  8

>  <PUBCHEM_BOND_DEF_STEREO_COUNT>  (13) 
0

>  <PUBCHEM_BOND_UDEF_STEREO_COUNT>  (13) 
0

>  <PUBCHEM_CACTVS_COMPLEXITY>  (13) 
327

>  <PUBCHEM_CACTVS_HBOND_ACCEPTOR>  (13) 
1

>  <PUBCHEM_CACTVS_HBOND_DONOR>  (13) 
3

>  <PUBCHEM_CACTVS_ROTATABLE_BOND>  (13) 
3

>  <PUBCHEM_CACTVS_SUBSKEYS>  (13) 
AAADceB7gAAEAAAAAAAAAAAAAAAAAAAAAAA8YIAAAAAAAACx9AAAHAAQAAAADAiBHgQz8PfIEACgAyZiZACCgCkhAqAJmCA4ZJiIKKLA2dGEJAhokAJIyCcQgAAOAACAAAACAAAAAQAAAAQAAAAAAAAAAA==

>  <PUBCHEM_CACTVS_TAUTO_COUNT>  (13) 
12

>  <PUBCHEM_CACTVS_TPSA>  (13) 
67.1

>  <PUBCHEM_COMPONENT_COUNT>  (13) 
2

>  <PUBCHEM_COMPOUND_CANONICALIZED>  (13) 
1

>  <PUBCHEM_COMPOUND_CID>  (13) 
2972188

>  <PUBCHEM_COORDINATE_TYPE>  (13) 
1
5
255

>  <PUBCHEM_EXACT_MASS>  (13) 
315.125073

>  <PUBCHEM_HEAVY_ATOM_COUNT>  (13) 
22

>  <PUBCHEM_ISOTOPIC_ATOM_COUNT>  (13) 
0

>  <PUBCHEM_IUPAC_CAS_NAME>  (13) 
N2-[4-(dimethylamino)phenyl]quinazoline-2,4-diamine hydrochloride

>  <PUBCHEM_IUPAC_INCHI>  (13) 
InChI=1S/C16H17N5.ClH/c1-21(2)12-9-7-11(8-10-12)18-16-19-14-6-4-3-5-13(14)15(17)20-16;/h3-10H,1-2H3,(H3,17,18,19,20);1H

>  <PUBCHEM_IUPAC_INCHIKEY>  (13) 
QOCBEHHYUJMWGW-UHFFFAOYSA-N

>  <PUBCHEM_IUPAC_NAME>  (13) 
2-N-[4-(dimethylamino)phenyl]quinazoline-2,4-diamine hydrochloride

>  <PUBCHEM_IUPAC_OPENEYE_NAME>  (13) 
N2-[4-(dimethylamino)phenyl]quinazoline-2,4-diamine hydrochloride

>  <PUBCHEM_IUPAC_SYSTEMATIC_NAME>  (13) 
N2-[4-(dimethylamino)phenyl]quinazoline-2,4-diamine hydrochloride

>  <PUBCHEM_IUPAC_TRADITIONAL_NAME>  (13) 
[4-[(4-aminoquinazolin-2-yl)amino]phenyl]-dimethyl-amine hydrochloride

>  <PUBCHEM_MOLECULAR_FORMULA>  (13) 
C16H18ClN5

>  <PUBCHEM_MOLECULAR_WEIGHT>  (13) 
315.80062

>  <PUBCHEM_MONOISOTOPIC_WEIGHT>  (13) 
315.125073

>  <PUBCHEM_OPENEYE_CAN_SMILES>  (13) 
CN(C)C1=CC=C(C=C1)NC2=NC3=CC=CC=C3C(=N2)N.Cl

>  <PUBCHEM_OPENEYE_ISO_SMILES>  (13) 
CN(C)C1=CC=C(C=C1)NC2=NC3=CC=CC=C3C(=N2)N.Cl

>  <PUBCHEM_TOTAL_CHARGE>  (13) 
0

$$$$
Largest isolated from Written by BCL::WriteToMDL,2983087
     RDKit          2D

 47 49  0 47  0  0  0  0  0  0999 V2000
    2.5431   -0.0547    0.0000 O   0  0  0  0  0  0  0  0  0  0  0  0
   -1.3466   -0.8426    0.0000 N   0  0  0  0  0  0  0  0  0  0  0  0
    4.0297   -0.2545    0.0000 C   0  0  0  0  0  0  0  0  0  0  0  0
    5.5254   -0.1409    0.0000 C   0  0  0  0  0  0  0  0  0  0  0  0
    3.6756   -1.7121    0.0000 C   0  0  0  0  0  0  0  0  0  0  0  0
    4.9524   -2.4993    0.0000 C   0  0  0  0  0  0  0  0  0  0  0  0
    6.0957   -1.5282    0.0000 C   0  0  0  0  0  0  0  0  0  0  0  0
    1.9728    1.3327    0.0000 C   0  0  0  0  0  0  0  0  0  0  0  0
    0.4862    1.5325    0.0000 C   0  0  0  0  0  0  0  0  0  0  0  0
   -0.4302    0.3450    0.0000 C   0  0  0  0  0  0  0  0  0  0  0  0
   -2.8332   -0.6428    0.0000 C   0  0  0  0  0  0  0  0  0  0  0  0
    2.8892    2.5202    0.0000 C   0  0  0  0  0  0  0  0  0  0  0  0
   -0.0841    2.9199    0.0000 C   0  0  0  0  0  0  0  0  0  0  0  0
   -4.3198   -0.4430    0.0000 C   0  0  0  0  0  0  0  0  0  0  0  0
    2.3189    3.9076    0.0000 C   0  0  0  0  0  0  0  0  0  0  0  0
   -3.0330   -2.1294    0.0000 C   0  0  0  0  0  0  0  0  0  0  0  0
    0.8323    4.1074    0.0000 C   0  0  0  0  0  0  0  0  0  0  0  0
   -5.2362   -1.6305    0.0000 C   0  0  0  0  0  0  0  0  0  0  0  0
   -4.8901    0.9444    0.0000 C   0  0  0  0  0  0  0  0  0  0  0  0
   -6.7228   -1.4307    0.0000 C   0  0  0  0  0  0  0  0  0  0  0  0
   -6.3767    1.1442    0.0000 C   0  0  0  0  0  0  0  0  0  0  0  0
   -7.2931   -0.0433    0.0000 C   0  0  0  0  0  0  0  0  0  0  0  0
    4.0730    1.2449    0.0000 H   0  0  0  0  0  0  0  0  0  0  0  0
    5.2560    1.3348    0.0000 H   0  0  0  0  0  0  0  0  0  0  0  0
    6.9648    0.2813    0.0000 H   0  0  0  0  0  0  0  0  0  0  0  0
    3.0262   -3.0642    0.0000 H   0  0  0  0  0  0  0  0  0  0  0  0
    2.2630   -1.2076    0.0000 H   0  0  0  0  0  0  0  0  0  0  0  0
    6.0377   -3.5348    0.0000 H   0  0  0  0  0  0  0  0  0  0  0  0
    7.4158   -0.8161    0.0000 H   0  0  0  0  0  0  0  0  0  0  0  0
    6.9419   -2.7667    0.0000 H   0  0  0  0  0  0  0  0  0  0  0  0
    4.0361   -3.6869    0.0000 H   0  0  0  0  0  0  0  0  0  0  0  0
   -1.6177    1.2613    0.0000 H   0  0  0  0  0  0  0  0  0  0  0  0
    0.7574   -0.5714    0.0000 H   0  0  0  0  0  0  0  0  0  0  0  0
   -2.6334    0.8438    0.0000 H   0  0  0  0  0  0  0  0  0  0  0  0
   -0.6114   -2.1501    0.0000 H   0  0  0  0  0  0  0  0  0  0  0  0
    4.3758    2.3204    0.0000 H   0  0  0  0  0  0  0  0  0  0  0  0
   -1.5707    3.1197    0.0000 H   0  0  0  0  0  0  0  0  0  0  0  0
   -1.5818   -2.5090    0.0000 H   0  0  0  0  0  0  0  0  0  0  0  0
   -3.9133   -2.2274    0.0000 H   0  0  0  0  0  0  0  0  0  0  0  0
   -3.2328   -3.6161    0.0000 H   0  0  0  0  0  0  0  0  0  0  0  0
    3.2353    5.0952    0.0000 H   0  0  0  0  0  0  0  0  0  0  0  0
    0.2620    5.4948    0.0000 H   0  0  0  0  0  0  0  0  0  0  0  0
   -4.8994   -2.4498    0.0000 H   0  0  0  0  0  0  0  0  0  0  0  0
   -3.9737    2.1320    0.0000 H   0  0  0  0  0  0  0  0  0  0  0  0
   -7.6392   -2.6183    0.0000 H   0  0  0  0  0  0  0  0  0  0  0  0
   -6.9470    2.5316    0.0000 H   0  0  0  0  0  0  0  0  0  0  0  0
   -8.7797    0.1565    0.0000 H   0  0  0  0  0  0  0  0  0  0  0  0
  1  3  1  0
  1  8  1  0
  2 10  1  0
  2 11  1  0
  2 35  1  0
  3  4  1  0
  3  5  1  0
  3 23  1  0
  4  7  1  0
  4 24  1  0
  4 25  1  0
  5  6  1  0
  5 26  1  0
  5 27  1  0
  6  7  1  0
  6 28  1  0
  6 31  1  0
  7 29  1  0
  7 30  1  0
  8  9  1  0
  8 12  2  0
  9 10  1  0
  9 13  2  0
 10 32  1  0
 10 33  1  0
 11 14  1  0
 11 16  1  0
 11 34  1  1
 12 15  1  0
 12 36  1  0
 13 17  1  0
 13 37  1  0
 14 18  2  0
 14 19  1  0
 15 17  2  0
 15 41  1  0
 16 38  1  0
 16 39  1  0
 16 40  1  0
 17 42  1  0
 18 20  1  0
 18 43  1  0
 19 21  2  0
 19 44  1  0
 20 22  2  0
 20 45  1  0
 21 22  1  0
 21 46  1  0
 22 47  1  0
M  STY  8   1 DAT   2 DAT   3 DAT   4 DAT   5 DAT   6 DAT   7 DAT   8 DAT
M  STY  8   9 DAT  10 DAT  11 DAT  12 DAT  13 DAT  14 DAT  15 DAT  16 DAT
M  STY  8  17 DAT  18 DAT  19 DAT  20 DAT  21 DAT  22 DAT  23 DAT  24 DAT
M  STY  8  25 DAT  26 DAT  27 DAT  28 DAT  29 DAT  30 DAT  31 DAT  32 DAT
M  STY  8  33 DAT  34 DAT  35 DAT  36 DAT  37 DAT  38 DAT  39 DAT  40 DAT
M  STY  7  41 DAT  42 DAT  43 DAT  44 DAT  45 DAT  46 DAT  47 DAT
M  SAL   1  1   1
M  SED   1 [#8&h0]
M  SAL   2  1   2
M  SED   2 [#7&h0]
M  SAL   3  1   3
M  SED   3 [#6&h0]
M  SAL   4  1   4
M  SED   4 [#6&h0]
M  SAL   5  1   5
M  SED   5 [#6&h0]
M  SAL   6  1   6
M  SED   6 [#6&h0]
M  SAL   7  1   7
M  SED   7 [#6&h0]
M  SAL   8  1   8
M  SED   8 [#6&h0]
M  SAL   9  1   9
M  SED   9 [#6&h0]
M  SAL  10  1  10
M  SED  10 [#6&h0]
M  SAL  11  1  11
M  SED  11 [#6&h0]
M  SAL  12  1  12
M  SED  12 [#6&h0]
M  SAL  13  1  13
M  SED  13 [#6&h0]
M  SAL  14  1  14
M  SED  14 [#6&h0]
M  SAL  15  1  15
M  SED  15 [#6&h0]
M  SAL  16  1  16
M  SED  16 [#6&h0]
M  SAL  17  1  17
M  SED  17 [#6&h0]
M  SAL  18  1  18
M  SED  18 [#6&h0]
M  SAL  19  1  19
M  SED  19 [#6&h0]
M  SAL  20  1  20
M  SED  20 [#6&h0]
M  SAL  21  1  21
M  SED  21 [#6&h0]
M  SAL  22  1  22
M  SED  22 [#6&h0]
M  SAL  23  1  23
M  SED  23 [#1&h0]
M  SAL  24  1  24
M  SED  24 [#1&h0]
M  SAL  25  1  25
M  SED  25 [#1&h0]
M  SAL  26  1  26
M  SED  26 [#1&h0]
M  SAL  27  1  27
M  SED  27 [#1&h0]
M  SAL  28  1  28
M  SED  28 [#1&h0]
M  SAL  29  1  29
M  SED  29 [#1&h0]
M  SAL  30  1  30
M  SED  30 [#1&h0]
M  SAL  31  1  31
M  SED  31 [#1&h0]
M  SAL  32  1  32
M  SED  32 [#1&h0]
M  SAL  33  1  33
M  SED  33 [#1&h0]
M  SAL  34  1  34
M  SED  34 [#1&h0]
M  SAL  35  1  35
M  SED  35 [#1&h0]
M  SAL  36  1  36
M  SED  36 [#1&h0]
M  SAL  37  1  37
M  SED  37 [#1&h0]
M  SAL  38  1  38
M  SED  38 [#1&h0]
M  SAL  39  1  39
M  SED  39 [#1&h0]
M  SAL  40  1  40
M  SED  40 [#1&h0]
M  SAL  41  1  41
M  SED  41 [#1&h0]
M  SAL  42  1  42
M  SED  42 [#1&h0]
M  SAL  43  1  43
M  SED  43 [#1&h0]
M  SAL  44  1  44
M  SED  44 [#1&h0]
M  SAL  45  1  45
M  SED  45 [#1&h0]
M  SAL  46  1  46
M  SED  46 [#1&h0]
M  SAL  47  1  47
M  SED  47 [#1&h0]
M  END
>  <Activity>  (14) 
0.01

>  <Mapped(file=2032.csv.activities,property=Cached(PUBCHEM_COMPOUND_CID))>  (14) 
100

>  <MatchIndices>  (14) 
140 

>  <PUBCHEM_ATOM_DEF_STEREO_COUNT>  (14) 
0

>  <PUBCHEM_ATOM_UDEF_STEREO_COUNT>  (14) 
1

>  <PUBCHEM_BONDANNOTATIONS>  (14) 
10  14  8
12  17  3
13  16  8
14  18  8
15  19  8
15  20  8
16  18  8
19  21  8
20  22  8
21  23  8
22  23  8
9  10  8
9  13  8

>  <PUBCHEM_BOND_DEF_STEREO_COUNT>  (14) 
0

>  <PUBCHEM_BOND_UDEF_STEREO_COUNT>  (14) 
0

>  <PUBCHEM_CACTVS_COMPLEXITY>  (14) 
307

>  <PUBCHEM_CACTVS_HBOND_ACCEPTOR>  (14) 
2

>  <PUBCHEM_CACTVS_HBOND_DONOR>  (14) 
2

>  <PUBCHEM_CACTVS_ROTATABLE_BOND>  (14) 
6

>  <PUBCHEM_CACTVS_SUBSKEYS>  (14) 
AAADceB6IAAEAAAAAAAAAAAAAAAAAYAAAAAwYAAAAAAAAAABQAAAHgAQAAAADDzhmAYyBoLABACAAiBCAACCCAAgIAAIiIAODIgMJiKEsRuGOCjm0BGIqAeQwKAOAAAAAAAIAAAAAAAAABAAAAAAAAAAAA==

>  <PUBCHEM_CACTVS_TAUTO_COUNT>  (14) 
1

>  <PUBCHEM_CACTVS_TPSA>  (14) 
21.3

>  <PUBCHEM_COMPONENT_COUNT>  (14) 
2

>  <PUBCHEM_COMPOUND_CANONICALIZED>  (14) 
1

>  <PUBCHEM_COMPOUND_CID>  (14) 
2983087

>  <PUBCHEM_COORDINATE_TYPE>  (14) 
1
5
255

>  <PUBCHEM_EXACT_MASS>  (14) 
331.170292

>  <PUBCHEM_HEAVY_ATOM_COUNT>  (14) 
23

>  <PUBCHEM_ISOTOPIC_ATOM_COUNT>  (14) 
0

>  <PUBCHEM_IUPAC_CAS_NAME>  (14) 
N-[(2-cyclopentyloxyphenyl)methyl]-1-phenylethanamine hydrochloride

>  <PUBCHEM_IUPAC_INCHI>  (14) 
InChI=1S/C20H25NO.ClH/c1-16(17-9-3-2-4-10-17)21-15-18-11-5-8-14-20(18)22-19-12-6-7-13-19;/h2-5,8-11,14,16,19,21H,6-7,12-13,15H2,1H3;1H

>  <PUBCHEM_IUPAC_INCHIKEY>  (14) 
JILMIWQSQIKGCV-UHFFFAOYSA-N

>  <PUBCHEM_IUPAC_NAME>  (14) 
N-[(2-cyclopentyloxyphenyl)methyl]-1-phenylethanamine hydrochloride

>  <PUBCHEM_IUPAC_OPENEYE_NAME>  (14) 
N-[[2-(cyclopentoxy)phenyl]methyl]-1-phenyl-ethanamine hydrochloride

>  <PUBCHEM_IUPAC_SYSTEMATIC_NAME>  (14) 
N-[(2-cyclopentyloxyphenyl)methyl]-1-phenyl-ethanamine hydrochloride

>  <PUBCHEM_IUPAC_TRADITIONAL_NAME>  (14) 
[2-(cyclopentoxy)benzyl]-(1-phenylethyl)amine hydrochloride

>  <PUBCHEM_MOLECULAR_FORMULA>  (14) 
C20H26ClNO

>  <PUBCHEM_MOLECULAR_WEIGHT>  (14) 
331.87954

>  <PUBCHEM_MONOISOTOPIC_WEIGHT>  (14) 
331.170292

>  <PUBCHEM_OPENEYE_CAN_SMILES>  (14) 
CC(C1=CC=CC=C1)NCC2=CC=CC=C2OC3CCCC3.Cl

>  <PUBCHEM_OPENEYE_ISO_SMILES>  (14) 
CC(C1=CC=CC=C1)NCC2=CC=CC=C2OC3CCCC3.Cl

>  <PUBCHEM_TOTAL_CHARGE>  (14) 
0

$$$$
Largest isolated from Written by BCL::WriteToMDL,661024
     RDKit          2D

 41 42  0 41  0  0  0  0  0  0999 V2000
    1.4121    3.7357    0.0000 Cl  0  0  0  0  0  0  0  0  0  0  0  0
    4.0065    3.5970    0.0000 Cl  0  0  0  0  0  0  0  0  0  0  0  0
    0.7736   -1.5359    0.0000 O   0  0  0  0  0  0  0  0  0  0  0  0
    1.4742    0.2886    0.0000 O   0  0  0  0  0  0  0  0  0  0  0  0
   -3.6101   -0.5191    0.0000 N   0  0  0  0  0  0  0  0  0  0  0  0
   -4.7431   -1.5020    0.0000 N   0  0  0  0  0  0  0  0  0  0  0  0
    4.7479   -0.5976    0.0000 C   0  0  0  0  0  0  0  0  0  0  0  0
    3.2589   -0.7789    0.0000 C   0  0  0  0  0  0  0  0  0  0  0  0
    3.8464    0.6013    0.0000 C   0  0  0  0  0  0  0  0  0  0  0  0
    5.1850   -2.0325    0.0000 C   0  0  0  0  0  0  0  0  0  0  0  0
    6.0851    0.0820    0.0000 C   0  0  0  0  0  0  0  0  0  0  0  0
    1.7977   -0.4399    0.0000 C   0  0  0  0  0  0  0  0  0  0  0  0
    2.5892    1.4195    0.0000 C   0  0  0  0  0  0  0  0  0  0  0  0
    2.6693    2.9174    0.0000 C   0  0  0  0  0  0  0  0  0  0  0  0
   -0.6877   -1.1970    0.0000 C   0  0  0  0  0  0  0  0  0  0  0  0
   -2.1489   -0.8581    0.0000 C   0  0  0  0  0  0  0  0  0  0  0  0
   -4.1947    0.8622    0.0000 C   0  0  0  0  0  0  0  0  0  0  0  0
   -5.6892    0.7330    0.0000 C   0  0  0  0  0  0  0  0  0  0  0  0
   -6.0281   -0.7282    0.0000 C   0  0  0  0  0  0  0  0  0  0  0  0
   -3.4209    2.1472    0.0000 C   0  0  0  0  0  0  0  0  0  0  0  0
   -7.4095   -1.3128    0.0000 C   0  0  0  0  0  0  0  0  0  0  0  0
    3.0231   -2.1081    0.0000 H   0  0  0  0  0  0  0  0  0  0  0  0
    4.6410    1.6927    0.0000 H   0  0  0  0  0  0  0  0  0  0  0  0
    6.7635   -0.9260    0.0000 H   0  0  0  0  0  0  0  0  0  0  0  0
    5.6247    1.3511    0.0000 H   0  0  0  0  0  0  0  0  0  0  0  0
    6.3817   -1.8228    0.0000 H   0  0  0  0  0  0  0  0  0  0  0  0
    3.9511   -2.5804    0.0000 H   0  0  0  0  0  0  0  0  0  0  0  0
    5.6221   -3.4674    0.0000 H   0  0  0  0  0  0  0  0  0  0  0  0
    7.4223    0.7616    0.0000 H   0  0  0  0  0  0  0  0  0  0  0  0
    1.8399    1.1477    0.0000 H   0  0  0  0  0  0  0  0  0  0  0  0
   -0.3487    0.2642    0.0000 H   0  0  0  0  0  0  0  0  0  0  0  0
   -1.0266   -2.6582    0.0000 H   0  0  0  0  0  0  0  0  0  0  0  0
   -2.4878   -2.3193    0.0000 H   0  0  0  0  0  0  0  0  0  0  0  0
   -1.6343    0.5509    0.0000 H   0  0  0  0  0  0  0  0  0  0  0  0
   -6.6721    1.8661    0.0000 H   0  0  0  0  0  0  0  0  0  0  0  0
   -2.0512    1.5357    0.0000 H   0  0  0  0  0  0  0  0  0  0  0  0
   -4.7058    2.9211    0.0000 H   0  0  0  0  0  0  0  0  0  0  0  0
   -2.6470    3.4321    0.0000 H   0  0  0  0  0  0  0  0  0  0  0  0
   -6.8248   -2.6942    0.0000 H   0  0  0  0  0  0  0  0  0  0  0  0
   -7.9941    0.0685    0.0000 H   0  0  0  0  0  0  0  0  0  0  0  0
   -8.7908   -1.8975    0.0000 H   0  0  0  0  0  0  0  0  0  0  0  0
  1 14  1  0
  2 14  1  0
  3 12  1  0
  3 15  1  0
  4 12  2  0
  5  6  1  0
  5 16  1  0
  5 17  1  0
  6 19  2  0
  7  8  1  0
  7  9  1  0
  7 10  1  0
  7 11  1  0
  8  9  1  0
  8 12  1  0
  8 22  1  1
  9 13  1  0
  9 23  1  6
 10 26  1  0
 10 27  1  0
 10 28  1  0
 11 24  1  0
 11 25  1  0
 11 29  1  0
 13 14  2  0
 13 30  1  0
 15 16  1  0
 15 31  1  0
 15 32  1  0
 16 33  1  0
 16 34  1  0
 17 18  2  0
 17 20  1  0
 18 19  1  0
 18 35  1  0
 19 21  1  0
 20 36  1  0
 20 37  1  0
 20 38  1  0
 21 39  1  0
 21 40  1  0
 21 41  1  0
M  STY  8   1 DAT   2 DAT   3 DAT   4 DAT   5 DAT   6 DAT   7 DAT   8 DAT
M  STY  8   9 DAT  10 DAT  11 DAT  12 DAT  13 DAT  14 DAT  15 DAT  16 DAT
M  STY  8  17 DAT  18 DAT  19 DAT  20 DAT  21 DAT  22 DAT  23 DAT  24 DAT
M  STY  8  25 DAT  26 DAT  27 DAT  28 DAT  29 DAT  30 DAT  31 DAT  32 DAT
M  STY  8  33 DAT  34 DAT  35 DAT  36 DAT  37 DAT  38 DAT  39 DAT  40 DAT
M  STY  1  41 DAT
M  SAL   1  1   1
M  SED   1 [#17&h0]
M  SAL   2  1   2
M  SED   2 [#17&h0]
M  SAL   3  1   3
M  SED   3 [#8&h0]
M  SAL   4  1   4
M  SED   4 [#8&h0]
M  SAL   5  1   5
M  SED   5 [#7&h0]
M  SAL   6  1   6
M  SED   6 [#7&h0]
M  SAL   7  1   7
M  SED   7 [#6&h0]
M  SAL   8  1   8
M  SED   8 [#6&h0]
M  SAL   9  1   9
M  SED   9 [#6&h0]
M  SAL  10  1  10
M  SED  10 [#6&h0]
M  SAL  11  1  11
M  SED  11 [#6&h0]
M  SAL  12  1  12
M  SED  12 [#6&h0]
M  SAL  13  1  13
M  SED  13 [#6&h0]
M  SAL  14  1  14
M  SED  14 [#6&h0]
M  SAL  15  1  15
M  SED  15 [#6&h0]
M  SAL  16  1  16
M  SED  16 [#6&h0]
M  SAL  17  1  17
M  SED  17 [#6&h0]
M  SAL  18  1  18
M  SED  18 [#6&h0]
M  SAL  19  1  19
M  SED  19 [#6&h0]
M  SAL  20  1  20
M  SED  20 [#6&h0]
M  SAL  21  1  21
M  SED  21 [#6&h0]
M  SAL  22  1  22
M  SED  22 [#1&h0]
M  SAL  23  1  23
M  SED  23 [#1&h0]
M  SAL  24  1  24
M  SED  24 [#1&h0]
M  SAL  25  1  25
M  SED  25 [#1&h0]
M  SAL  26  1  26
M  SED  26 [#1&h0]
M  SAL  27  1  27
M  SED  27 [#1&h0]
M  SAL  28  1  28
M  SED  28 [#1&h0]
M  SAL  29  1  29
M  SED  29 [#1&h0]
M  SAL  30  1  30
M  SED  30 [#1&h0]
M  SAL  31  1  31
M  SED  31 [#1&h0]
M  SAL  32  1  32
M  SED  32 [#1&h0]
M  SAL  33  1  33
M  SED  33 [#1&h0]
M  SAL  34  1  34
M  SED  34 [#1&h0]
M  SAL  35  1  35
M  SED  35 [#1&h0]
M  SAL  36  1  36
M  SED  36 [#1&h0]
M  SAL  37  1  37
M  SED  37 [#1&h0]
M  SAL  38  1  38
M  SED  38 [#1&h0]
M  SAL  39  1  39
M  SED  39 [#1&h0]
M  SAL  40  1  40
M  SED  40 [#1&h0]
M  SAL  41  1  41
M  SED  41 [#1&h0]
M  END
>  <Activity>  (15) 
0.01

>  <Mapped(file=2032.csv.activities,property=Cached(PUBCHEM_COMPOUND_CID))>  (15) 
100

>  <MatchIndices>  (15) 
85 

>  <PUBCHEM_ATOM_DEF_STEREO_COUNT>  (15) 
0

>  <PUBCHEM_ATOM_UDEF_STEREO_COUNT>  (15) 
2

>  <PUBCHEM_BONDANNOTATIONS>  (15) 
17  18  8
18  19  8
5  17  8
5  6  8
6  19  8
8  12  3
9  13  3

>  <PUBCHEM_BOND_DEF_STEREO_COUNT>  (15) 
0

>  <PUBCHEM_BOND_UDEF_STEREO_COUNT>  (15) 
0

>  <PUBCHEM_CACTVS_COMPLEXITY>  (15) 
435

>  <PUBCHEM_CACTVS_HBOND_ACCEPTOR>  (15) 
3

>  <PUBCHEM_CACTVS_HBOND_DONOR>  (15) 
0

>  <PUBCHEM_CACTVS_ROTATABLE_BOND>  (15) 
6

>  <PUBCHEM_CACTVS_SUBSKEYS>  (15) 
AAADceBzMAAGAAAAAAAAAAAAGAAAAWAAAAAAAAAAAAAAAAABgAAAHgIIAAAADwrhloYyiJIIBACqASTyTACQBAAhggAQWCE4ZBgCIBJAwdAHhAhkiADYSAKIAAAPgAAAAAAAAAAAAAAAAAAAAAAAAAAAAA==

>  <PUBCHEM_CACTVS_TAUTO_COUNT>  (15) 
1

>  <PUBCHEM_CACTVS_TPSA>  (15) 
44.1

>  <PUBCHEM_COMPONENT_COUNT>  (15) 
1

>  <PUBCHEM_COMPOUND_CANONICALIZED>  (15) 
1

>  <PUBCHEM_COMPOUND_CID>  (15) 
661024

>  <PUBCHEM_COORDINATE_TYPE>  (15) 
1
5
255

>  <PUBCHEM_EXACT_MASS>  (15) 
330.090183

>  <PUBCHEM_HEAVY_ATOM_COUNT>  (15) 
21

>  <PUBCHEM_ISOTOPIC_ATOM_COUNT>  (15) 
0

>  <PUBCHEM_IUPAC_CAS_NAME>  (15) 
3-(2,2-dichloroethenyl)-2,2-dimethyl-1-cyclopropanecarboxylic acid 2-(3,5-dimethyl-1-pyrazolyl)ethyl ester

>  <PUBCHEM_IUPAC_INCHI>  (15) 
InChI=1S/C15H20Cl2N2O2/c1-9-7-10(2)19(18-9)5-6-21-14(20)13-11(8-12(16)17)15(13,3)4/h7-8,11,13H,5-6H2,1-4H3

>  <PUBCHEM_IUPAC_INCHIKEY>  (15) 
DHKMJAHFQFYQLM-UHFFFAOYSA-N

>  <PUBCHEM_IUPAC_NAME>  (15) 
2-(3,5-dimethylpyrazol-1-yl)ethyl 3-(2,2-dichloroethenyl)-2,2-dimethylcyclopropane-1-carboxylate

>  <PUBCHEM_IUPAC_OPENEYE_NAME>  (15) 
2-(3,5-dimethylpyrazol-1-yl)ethyl 3-(2,2-dichlorovinyl)-2,2-dimethyl-cyclopropanecarboxylate

>  <PUBCHEM_IUPAC_SYSTEMATIC_NAME>  (15) 
2-(3,5-dimethylpyrazol-1-yl)ethyl 3-[2,2-bis(chloranyl)ethenyl]-2,2-dimethyl-cyclopropane-1-carboxylate

>  <PUBCHEM_IUPAC_TRADITIONAL_NAME>  (15) 
3-(2,2-dichlorovinyl)-2,2-dimethyl-cyclopropanecarboxylic acid 2-(3,5-dimethylpyrazol-1-yl)ethyl ester

>  <PUBCHEM_MOLECULAR_FORMULA>  (15) 
C15H20Cl2N2O2

>  <PUBCHEM_MOLECULAR_WEIGHT>  (15) 
331.2375

>  <PUBCHEM_MONOISOTOPIC_WEIGHT>  (15) 
330.090183

>  <PUBCHEM_OPENEYE_CAN_SMILES>  (15) 
CC1=CC(=NN1CCOC(=O)C2C(C2(C)C)C=C(Cl)Cl)C

>  <PUBCHEM_OPENEYE_ISO_SMILES>  (15) 
CC1=CC(=NN1CCOC(=O)C2C(C2(C)C)C=C(Cl)Cl)C

>  <PUBCHEM_TOTAL_CHARGE>  (15) 
0

>  <PUBCHEM_XLOGP3_AA>  (15) 
3.8

$$$$
Largest isolated from Written by BCL::WriteToMDL,1167729
     RDKit          2D

 45 47  0 45  0  0  0  0  0  0999 V2000
   -3.3470   -0.5780    0.0000 S   0  0  0  0  0  0  0  0  0  0  0  0
   -6.0059   -0.3034    0.0000 S   0  0  0  0  0  0  0  0  0  0  0  0
   -0.6007    2.2870    0.0000 O   0  0  0  0  0  0  0  0  0  0  0  0
    0.5830   -0.0258    0.0000 N   0  0  0  0  0  0  0  0  0  0  0  0
   -4.6878    1.7345    0.0000 N   0  0  0  0  0  0  0  0  0  0  0  0
   -6.1374    2.1201    0.0000 N   0  0  0  0  0  0  0  0  0  0  0  0
    0.5072   -1.5239    0.0000 C   0  0  0  0  0  0  0  0  0  0  0  0
    1.7667   -2.3385    0.0000 C   0  0  0  0  0  0  0  0  0  0  0  0
    1.9183    0.6576    0.0000 C   0  0  0  0  0  0  0  0  0  0  0  0
    3.1778   -0.1570    0.0000 C   0  0  0  0  0  0  0  0  0  0  0  0
    3.1020   -1.6551    0.0000 C   0  0  0  0  0  0  0  0  0  0  0  0
   -0.0764   -2.9057    0.0000 C   0  0  0  0  0  0  0  0  0  0  0  0
   -0.9549   -1.1891    0.0000 C   0  0  0  0  0  0  0  0  0  0  0  0
   -0.6765    0.7889    0.0000 C   0  0  0  0  0  0  0  0  0  0  0  0
    1.9940    2.1557    0.0000 C   0  0  0  0  0  0  0  0  0  0  0  0
    4.5130    0.5264    0.0000 C   0  0  0  0  0  0  0  0  0  0  0  0
    4.3615   -2.4698    0.0000 C   0  0  0  0  0  0  0  0  0  0  0  0
    4.5888    2.0245    0.0000 C   0  0  0  0  0  0  0  0  0  0  0  0
    3.3293    2.8391    0.0000 C   0  0  0  0  0  0  0  0  0  0  0  0
   -2.0118    0.1055    0.0000 C   0  0  0  0  0  0  0  0  0  0  0  0
    5.9241    2.7079    0.0000 C   0  0  0  0  0  0  0  0  0  0  0  0
   -4.6065    0.2367    0.0000 C   0  0  0  0  0  0  0  0  0  0  0  0
   -6.9520    0.8606    0.0000 C   0  0  0  0  0  0  0  0  0  0  0  0
   -8.4498    0.7794    0.0000 C   0  0  0  0  0  0  0  0  0  0  0  0
    1.8450   -3.4292    0.0000 H   0  0  0  0  0  0  0  0  0  0  0  0
   -0.8430   -2.6874    0.0000 H   0  0  0  0  0  0  0  0  0  0  0  0
    0.8716   -3.4507    0.0000 H   0  0  0  0  0  0  0  0  0  0  0  0
   -0.6599   -4.2875    0.0000 H   0  0  0  0  0  0  0  0  0  0  0  0
   -0.9784    0.0257    0.0000 H   0  0  0  0  0  0  0  0  0  0  0  0
   -1.2262   -1.9387    0.0000 H   0  0  0  0  0  0  0  0  0  0  0  0
   -2.4171   -0.8543    0.0000 H   0  0  0  0  0  0  0  0  0  0  0  0
    0.7345    2.9704    0.0000 H   0  0  0  0  0  0  0  0  0  0  0  0
    5.7725   -0.2883    0.0000 H   0  0  0  0  0  0  0  0  0  0  0  0
    3.5468   -3.7293    0.0000 H   0  0  0  0  0  0  0  0  0  0  0  0
    5.1761   -1.2103    0.0000 H   0  0  0  0  0  0  0  0  0  0  0  0
    5.6210   -3.2844    0.0000 H   0  0  0  0  0  0  0  0  0  0  0  0
    3.4051    4.3372    0.0000 H   0  0  0  0  0  0  0  0  0  0  0  0
   -1.6718   -1.3555    0.0000 H   0  0  0  0  0  0  0  0  0  0  0  0
   -2.6952    1.4407    0.0000 H   0  0  0  0  0  0  0  0  0  0  0  0
    6.6075    1.3726    0.0000 H   0  0  0  0  0  0  0  0  0  0  0  0
    5.2406    4.0432    0.0000 H   0  0  0  0  0  0  0  0  0  0  0  0
    7.2593    3.3913    0.0000 H   0  0  0  0  0  0  0  0  0  0  0  0
   -8.5311    2.2772    0.0000 H   0  0  0  0  0  0  0  0  0  0  0  0
   -8.3686   -0.7184    0.0000 H   0  0  0  0  0  0  0  0  0  0  0  0
   -9.9476    0.6981    0.0000 H   0  0  0  0  0  0  0  0  0  0  0  0
  1 20  1  0
  1 22  1  0
  2 22  1  0
  2 23  1  0
  3 14  2  0
  4  7  1  0
  4  9  1  0
  4 14  1  0
  5  6  1  0
  5 22  2  0
  6 23  2  0
  7  8  1  0
  7 12  1  0
  7 13  1  0
  8 11  2  0
  8 25  1  0
  9 10  2  0
  9 15  1  0
 10 11  1  0
 10 16  1  0
 11 17  1  0
 12 26  1  0
 12 27  1  0
 12 28  1  0
 13 29  1  0
 13 30  1  0
 13 31  1  0
 14 20  1  0
 15 19  2  0
 15 32  1  0
 16 18  2  0
 16 33  1  0
 17 34  1  0
 17 35  1  0
 17 36  1  0
 18 19  1  0
 18 21  1  0
 19 37  1  0
 20 38  1  0
 20 39  1  0
 21 40  1  0
 21 41  1  0
 21 42  1  0
 23 24  1  0
 24 43  1  0
 24 44  1  0
 24 45  1  0
M  STY  8   1 DAT   2 DAT   3 DAT   4 DAT   5 DAT   6 DAT   7 DAT   8 DAT
M  STY  8   9 DAT  10 DAT  11 DAT  12 DAT  13 DAT  14 DAT  15 DAT  16 DAT
M  STY  8  17 DAT  18 DAT  19 DAT  20 DAT  21 DAT  22 DAT  23 DAT  24 DAT
M  STY  8  25 DAT  26 DAT  27 DAT  28 DAT  29 DAT  30 DAT  31 DAT  32 DAT
M  STY  8  33 DAT  34 DAT  35 DAT  36 DAT  37 DAT  38 DAT  39 DAT  40 DAT
M  STY  5  41 DAT  42 DAT  43 DAT  44 DAT  45 DAT
M  SAL   1  1   1
M  SED   1 [#16&h0]
M  SAL   2  1   2
M  SED   2 [#16&h0]
M  SAL   3  1   3
M  SED   3 [#8&h0]
M  SAL   4  1   4
M  SED   4 [#7&h0]
M  SAL   5  1   5
M  SED   5 [#7&h0]
M  SAL   6  1   6
M  SED   6 [#7&h0]
M  SAL   7  1   7
M  SED   7 [#6&h0]
M  SAL   8  1   8
M  SED   8 [#6&h0]
M  SAL   9  1   9
M  SED   9 [#6&h0]
M  SAL  10  1  10
M  SED  10 [#6&h0]
M  SAL  11  1  11
M  SED  11 [#6&h0]
M  SAL  12  1  12
M  SED  12 [#6&h0]
M  SAL  13  1  13
M  SED  13 [#6&h0]
M  SAL  14  1  14
M  SED  14 [#6&h0]
M  SAL  15  1  15
M  SED  15 [#6&h0]
M  SAL  16  1  16
M  SED  16 [#6&h0]
M  SAL  17  1  17
M  SED  17 [#6&h0]
M  SAL  18  1  18
M  SED  18 [#6&h0]
M  SAL  19  1  19
M  SED  19 [#6&h0]
M  SAL  20  1  20
M  SED  20 [#6&h0]
M  SAL  21  1  21
M  SED  21 [#6&h0]
M  SAL  22  1  22
M  SED  22 [#6&h0]
M  SAL  23  1  23
M  SED  23 [#6&h0]
M  SAL  24  1  24
M  SED  24 [#6&h0]
M  SAL  25  1  25
M  SED  25 [#1&h0]
M  SAL  26  1  26
M  SED  26 [#1&h0]
M  SAL  27  1  27
M  SED  27 [#1&h0]
M  SAL  28  1  28
M  SED  28 [#1&h0]
M  SAL  29  1  29
M  SED  29 [#1&h0]
M  SAL  30  1  30
M  SED  30 [#1&h0]
M  SAL  31  1  31
M  SED  31 [#1&h0]
M  SAL  32  1  32
M  SED  32 [#1&h0]
M  SAL  33  1  33
M  SED  33 [#1&h0]
M  SAL  34  1  34
M  SED  34 [#1&h0]
M  SAL  35  1  35
M  SED  35 [#1&h0]
M  SAL  36  1  36
M  SED  36 [#1&h0]
M  SAL  37  1  37
M  SED  37 [#1&h0]
M  SAL  38  1  38
M  SED  38 [#1&h0]
M  SAL  39  1  39
M  SED  39 [#1&h0]
M  SAL  40  1  40
M  SED  40 [#1&h0]
M  SAL  41  1  41
M  SED  41 [#1&h0]
M  SAL  42  1  42
M  SED  42 [#1&h0]
M  SAL  43  1  43
M  SED  43 [#1&h0]
M  SAL  44  1  44
M  SED  44 [#1&h0]
M  SAL  45  1  45
M  SED  45 [#1&h0]
M  END
>  <Activity>  (16) 
0.01

>  <Mapped(file=2032.csv.activities,property=Cached(PUBCHEM_COMPOUND_CID))>  (16) 
100

>  <MatchIndices>  (16) 
195 

>  <PUBCHEM_ATOM_DEF_STEREO_COUNT>  (16) 
0

>  <PUBCHEM_ATOM_UDEF_STEREO_COUNT>  (16) 
0

>  <PUBCHEM_BONDANNOTATIONS>  (16) 
10  16  8
15  19  8
16  18  8
18  19  8
2  22  8
2  23  8
5  22  8
5  6  8
6  23  8
9  10  8
9  15  8

>  <PUBCHEM_BOND_DEF_STEREO_COUNT>  (16) 
0

>  <PUBCHEM_BOND_UDEF_STEREO_COUNT>  (16) 
0

>  <PUBCHEM_CACTVS_COMPLEXITY>  (16) 
522

>  <PUBCHEM_CACTVS_HBOND_ACCEPTOR>  (16) 
3

>  <PUBCHEM_CACTVS_HBOND_DONOR>  (16) 
0

>  <PUBCHEM_CACTVS_ROTATABLE_BOND>  (16) 
3

>  <PUBCHEM_CACTVS_SUBSKEYS>  (16) 
AAADceB7IABgAAAAAAAAAAAAAAAAAWAAAAAwQAAAAAAAAACBwAAAHgQIAAAADIiF2gCywIMAAAiuAiVyUACSAYBhAhAYiAAQZIgIICLAkZGEIAhgjADIyAcQgMAOCAACAAACAAAQAAQAAAQAAAAAAAAAAA==

>  <PUBCHEM_CACTVS_TAUTO_COUNT>  (16) 
1

>  <PUBCHEM_CACTVS_TPSA>  (16) 
99.6

>  <PUBCHEM_COMPONENT_COUNT>  (16) 
1

>  <PUBCHEM_COMPOUND_CANONICALIZED>  (16) 
1

>  <PUBCHEM_COMPOUND_CID>  (16) 
1167729

>  <PUBCHEM_COORDINATE_TYPE>  (16) 
1
5
255

>  <PUBCHEM_EXACT_MASS>  (16) 
359.112604

>  <PUBCHEM_HEAVY_ATOM_COUNT>  (16) 
24

>  <PUBCHEM_ISOTOPIC_ATOM_COUNT>  (16) 
0

>  <PUBCHEM_IUPAC_CAS_NAME>  (16) 
2-[(5-methyl-1,3,4-thiadiazol-2-yl)thio]-1-(2,2,4,6-tetramethyl-1-quinolinyl)ethanone

>  <PUBCHEM_IUPAC_INCHI>  (16) 
InChI=1S/C18H21N3OS2/c1-11-6-7-15-14(8-11)12(2)9-18(4,5)21(15)16(22)10-23-17-20-19-13(3)24-17/h6-9H,10H2,1-5H3

>  <PUBCHEM_IUPAC_INCHIKEY>  (16) 
FMBLBOACTYGHCS-UHFFFAOYSA-N

>  <PUBCHEM_IUPAC_NAME>  (16) 
2-[(5-methyl-1,3,4-thiadiazol-2-yl)sulfanyl]-1-(2,2,4,6-tetramethylquinolin-1-yl)ethanone

>  <PUBCHEM_IUPAC_OPENEYE_NAME>  (16) 
2-[(5-methyl-1,3,4-thiadiazol-2-yl)sulfanyl]-1-(2,2,4,6-tetramethyl-1-quinolyl)ethanone

>  <PUBCHEM_IUPAC_SYSTEMATIC_NAME>  (16) 
2-[(5-methyl-1,3,4-thiadiazol-2-yl)sulfanyl]-1-(2,2,4,6-tetramethylquinolin-1-yl)ethanone

>  <PUBCHEM_IUPAC_TRADITIONAL_NAME>  (16) 
2-[(5-methyl-1,3,4-thiadiazol-2-yl)thio]-1-(2,2,4,6-tetramethyl-1-quinolyl)ethanone

>  <PUBCHEM_MOLECULAR_FORMULA>  (16) 
C18H21N3OS2

>  <PUBCHEM_MOLECULAR_WEIGHT>  (16) 
359.50884

>  <PUBCHEM_MONOISOTOPIC_WEIGHT>  (16) 
359.112604

>  <PUBCHEM_OPENEYE_CAN_SMILES>  (16) 
CC1=CC2=C(C=C1)N(C(C=C2C)(C)C)C(=O)CSC3=NN=C(S3)C

>  <PUBCHEM_OPENEYE_ISO_SMILES>  (16) 
CC1=CC2=C(C=C1)N(C(C=C2C)(C)C)C(=O)CSC3=NN=C(S3)C

>  <PUBCHEM_TOTAL_CHARGE>  (16) 
0

>  <PUBCHEM_XLOGP3_AA>  (16) 
3.9

$$$$
Largest isolated from Written by BCL::WriteToMDL,2463554
     RDKit          2D

 49 51  0 49  0  0  0  0  0  0999 V2000
    2.4407    2.2046    0.0000 S   0  0  0  0  0  0  0  0  0  0  0  0
   -4.2694    1.7909    0.0000 S   0  0  0  0  0  0  0  0  0  0  0  0
   -4.8942   -0.8080    0.0000 S   0  0  0  0  0  0  0  0  0  0  0  0
    4.7943   -0.9908    0.0000 O   0  0  0  0  0  0  0  0  0  0  0  0
    5.7121    0.8856    0.0000 O   0  0  0  0  0  0  0  0  0  0  0  0
   -0.2314    2.2754    0.0000 N   0  0  0  0  0  0  0  0  0  0  0  0
   -0.6745   -0.1109    0.0000 N   0  0  0  0  0  0  0  0  0  0  0  0
    0.8128    0.0844    0.0000 N   0  0  0  0  0  0  0  0  0  0  0  0
   -6.7393    0.7688    0.0000 N   0  0  0  0  0  0  0  0  0  0  0  0
    6.0302   -1.8408    0.0000 C   0  0  0  0  0  0  0  0  0  0  0  0
    5.1802   -3.0768    0.0000 C   0  0  0  0  0  0  0  0  0  0  0  0
    6.8803   -0.6049    0.0000 C   0  0  0  0  0  0  0  0  0  0  0  0
    7.2661   -2.6909    0.0000 C   0  0  0  0  0  0  0  0  0  0  0  0
   -0.4267    3.7626    0.0000 C   0  0  0  0  0  0  0  0  0  0  0  0
   -1.3198    1.2432    0.0000 C   0  0  0  0  0  0  0  0  0  0  0  0
    1.0866    1.5592    0.0000 C   0  0  0  0  0  0  0  0  0  0  0  0
   -2.7946    1.5171    0.0000 C   0  0  0  0  0  0  0  0  0  0  0  0
    3.6766    1.3545    0.0000 C   0  0  0  0  0  0  0  0  0  0  0  0
    4.9125    0.5045    0.0000 C   0  0  0  0  0  0  0  0  0  0  0  0
   -0.6220    5.2499    0.0000 C   0  0  0  0  0  0  0  0  0  0  0  0
   -5.2439    0.6506    0.0000 C   0  0  0  0  0  0  0  0  0  0  0  0
   -6.1735   -1.5914    0.0000 C   0  0  0  0  0  0  0  0  0  0  0  0
   -7.3137   -0.6168    0.0000 C   0  0  0  0  0  0  0  0  0  0  0  0
   -6.4473   -3.0661    0.0000 C   0  0  0  0  0  0  0  0  0  0  0  0
   -8.7279   -1.1170    0.0000 C   0  0  0  0  0  0  0  0  0  0  0  0
   -7.8614   -3.5664    0.0000 C   0  0  0  0  0  0  0  0  0  0  0  0
   -9.0017   -2.5918    0.0000 C   0  0  0  0  0  0  0  0  0  0  0  0
    5.8434   -3.6639    0.0000 H   0  0  0  0  0  0  0  0  0  0  0  0
    3.9443   -2.2267    0.0000 H   0  0  0  0  0  0  0  0  0  0  0  0
    7.6658   -1.0142    0.0000 H   0  0  0  0  0  0  0  0  0  0  0  0
    6.2936    0.0587    0.0000 H   0  0  0  0  0  0  0  0  0  0  0  0
    7.7303    0.6310    0.0000 H   0  0  0  0  0  0  0  0  0  0  0  0
    7.8533   -2.0277    0.0000 H   0  0  0  0  0  0  0  0  0  0  0  0
    6.8569   -3.4764    0.0000 H   0  0  0  0  0  0  0  0  0  0  0  0
    8.5021   -3.5409    0.0000 H   0  0  0  0  0  0  0  0  0  0  0  0
    4.3302   -4.3127    0.0000 H   0  0  0  0  0  0  0  0  0  0  0  0
    1.0606    3.9579    0.0000 H   0  0  0  0  0  0  0  0  0  0  0  0
   -1.9266    3.7501    0.0000 H   0  0  0  0  0  0  0  0  0  0  0  0
   -2.7025    3.0143    0.0000 H   0  0  0  0  0  0  0  0  0  0  0  0
   -3.0684    0.0423    0.0000 H   0  0  0  0  0  0  0  0  0  0  0  0
    4.5266    2.5904    0.0000 H   0  0  0  0  0  0  0  0  0  0  0  0
    2.8266    0.1186    0.0000 H   0  0  0  0  0  0  0  0  0  0  0  0
    0.8653    5.4452    0.0000 H   0  0  0  0  0  0  0  0  0  0  0  0
   -2.1092    5.0546    0.0000 H   0  0  0  0  0  0  0  0  0  0  0  0
   -0.8173    6.7371    0.0000 H   0  0  0  0  0  0  0  0  0  0  0  0
   -5.3070   -4.0407    0.0000 H   0  0  0  0  0  0  0  0  0  0  0  0
   -9.8682   -0.1425    0.0000 H   0  0  0  0  0  0  0  0  0  0  0  0
   -8.1353   -5.0412    0.0000 H   0  0  0  0  0  0  0  0  0  0  0  0
  -10.4158   -3.0921    0.0000 H   0  0  0  0  0  0  0  0  0  0  0  0
  1 16  1  0
  1 18  1  0
  2 17  1  0
  2 21  1  0
  3 21  1  0
  3 22  1  0
  4 10  1  0
  4 19  1  0
  5 19  2  0
  6 14  1  0
  6 15  1  0
  6 16  1  0
  7  8  1  0
  7 15  2  0
  8 16  2  0
  9 21  2  0
  9 23  1  0
 10 11  1  0
 10 12  1  0
 10 13  1  0
 11 28  1  0
 11 29  1  0
 11 36  1  0
 12 30  1  0
 12 31  1  0
 12 32  1  0
 13 33  1  0
 13 34  1  0
 13 35  1  0
 14 20  1  0
 14 37  1  0
 14 38  1  0
 15 17  1  0
 17 39  1  0
 17 40  1  0
 18 19  1  0
 18 41  1  0
 18 42  1  0
 20 43  1  0
 20 44  1  0
 20 45  1  0
 22 23  2  0
 22 24  1  0
 23 25  1  0
 24 26  2  0
 24 46  1  0
 25 27  2  0
 25 47  1  0
 26 27  1  0
 26 48  1  0
 27 49  1  0
M  STY  8   1 DAT   2 DAT   3 DAT   4 DAT   5 DAT   6 DAT   7 DAT   8 DAT
M  STY  8   9 DAT  10 DAT  11 DAT  12 DAT  13 DAT  14 DAT  15 DAT  16 DAT
M  STY  8  17 DAT  18 DAT  19 DAT  20 DAT  21 DAT  22 DAT  23 DAT  24 DAT
M  STY  8  25 DAT  26 DAT  27 DAT  28 DAT  29 DAT  30 DAT  31 DAT  32 DAT
M  STY  8  33 DAT  34 DAT  35 DAT  36 DAT  37 DAT  38 DAT  39 DAT  40 DAT
M  STY  8  41 DAT  42 DAT  43 DAT  44 DAT  45 DAT  46 DAT  47 DAT  48 DAT
M  STY  1  49 DAT
M  SAL   1  1   1
M  SED   1 [#16&h0]
M  SAL   2  1   2
M  SED   2 [#16&h0]
M  SAL   3  1   3
M  SED   3 [#16&h0]
M  SAL   4  1   4
M  SED   4 [#8&h0]
M  SAL   5  1   5
M  SED   5 [#8&h0]
M  SAL   6  1   6
M  SED   6 [#7&h0]
M  SAL   7  1   7
M  SED   7 [#7&h0]
M  SAL   8  1   8
M  SED   8 [#7&h0]
M  SAL   9  1   9
M  SED   9 [#7&h0]
M  SAL  10  1  10
M  SED  10 [#6&h0]
M  SAL  11  1  11
M  SED  11 [#6&h0]
M  SAL  12  1  12
M  SED  12 [#6&h0]
M  SAL  13  1  13
M  SED  13 [#6&h0]
M  SAL  14  1  14
M  SED  14 [#6&h0]
M  SAL  15  1  15
M  SED  15 [#6&h0]
M  SAL  16  1  16
M  SED  16 [#6&h0]
M  SAL  17  1  17
M  SED  17 [#6&h0]
M  SAL  18  1  18
M  SED  18 [#6&h0]
M  SAL  19  1  19
M  SED  19 [#6&h0]
M  SAL  20  1  20
M  SED  20 [#6&h0]
M  SAL  21  1  21
M  SED  21 [#6&h0]
M  SAL  22  1  22
M  SED  22 [#6&h0]
M  SAL  23  1  23
M  SED  23 [#6&h0]
M  SAL  24  1  24
M  SED  24 [#6&h0]
M  SAL  25  1  25
M  SED  25 [#6&h0]
M  SAL  26  1  26
M  SED  26 [#6&h0]
M  SAL  27  1  27
M  SED  27 [#6&h0]
M  SAL  28  1  28
M  SED  28 [#1&h0]
M  SAL  29  1  29
M  SED  29 [#1&h0]
M  SAL  30  1  30
M  SED  30 [#1&h0]
M  SAL  31  1  31
M  SED  31 [#1&h0]
M  SAL  32  1  32
M  SED  32 [#1&h0]
M  SAL  33  1  33
M  SED  33 [#1&h0]
M  SAL  34  1  34
M  SED  34 [#1&h0]
M  SAL  35  1  35
M  SED  35 [#1&h0]
M  SAL  36  1  36
M  SED  36 [#1&h0]
M  SAL  37  1  37
M  SED  37 [#1&h0]
M  SAL  38  1  38
M  SED  38 [#1&h0]
M  SAL  39  1  39
M  SED  39 [#1&h0]
M  SAL  40  1  40
M  SED  40 [#1&h0]
M  SAL  41  1  41
M  SED  41 [#1&h0]
M  SAL  42  1  42
M  SED  42 [#1&h0]
M  SAL  43  1  43
M  SED  43 [#1&h0]
M  SAL  44  1  44
M  SED  44 [#1&h0]
M  SAL  45  1  45
M  SED  45 [#1&h0]
M  SAL  46  1  46
M  SED  46 [#1&h0]
M  SAL  47  1  47
M  SED  47 [#1&h0]
M  SAL  48  1  48
M  SED  48 [#1&h0]
M  SAL  49  1  49
M  SED  49 [#1&h0]
M  END
>  <Activity>  (17) 
0.01

>  <Mapped(file=2032.csv.activities,property=Cached(PUBCHEM_COMPOUND_CID))>  (17) 
100

>  <MatchIndices>  (17) 
121 

>  <PUBCHEM_ATOM_DEF_STEREO_COUNT>  (17) 
0

>  <PUBCHEM_ATOM_UDEF_STEREO_COUNT>  (17) 
0

>  <PUBCHEM_BONDANNOTATIONS>  (17) 
22  23  8
22  24  8
23  25  8
24  26  8
25  27  8
26  27  8
3  21  8
3  22  8
6  15  8
6  16  8
7  15  8
7  8  8
8  16  8
9  21  8
9  23  8

>  <PUBCHEM_BOND_DEF_STEREO_COUNT>  (17) 
0

>  <PUBCHEM_BOND_UDEF_STEREO_COUNT>  (17) 
0

>  <PUBCHEM_CACTVS_COMPLEXITY>  (17) 
506

>  <PUBCHEM_CACTVS_HBOND_ACCEPTOR>  (17) 
5

>  <PUBCHEM_CACTVS_HBOND_DONOR>  (17) 
0

>  <PUBCHEM_CACTVS_ROTATABLE_BOND>  (17) 
9

>  <PUBCHEM_CACTVS_SUBSKEYS>  (17) 
AAADceB7sABgAAAAAAAAAAAAAAAAAWLAAAAwAAAAAAAAAFgB/AAAHgQIAAAADEzF1wSz2bcMFAiuASbybACT8athCrhd2Dw4ZJiIKKLgmZGGIAhgiALIyAcQAAAAAAAAAAAAAQAAAAAAAAACAAAAAAAAAA==

>  <PUBCHEM_CACTVS_TAUTO_COUNT>  (17) 
1

>  <PUBCHEM_CACTVS_TPSA>  (17) 
149

>  <PUBCHEM_COMPONENT_COUNT>  (17) 
1

>  <PUBCHEM_COMPOUND_CANONICALIZED>  (17) 
1

>  <PUBCHEM_COMPOUND_CID>  (17) 
2463554

>  <PUBCHEM_COORDINATE_TYPE>  (17) 
1
5
255

>  <PUBCHEM_EXACT_MASS>  (17) 
422.090489

>  <PUBCHEM_HEAVY_ATOM_COUNT>  (17) 
27

>  <PUBCHEM_ISOTOPIC_ATOM_COUNT>  (17) 
0

>  <PUBCHEM_IUPAC_CAS_NAME>  (17) 
2-[[5-[(1,3-benzothiazol-2-ylthio)methyl]-4-ethyl-1,2,4-triazol-3-yl]thio]acetic acid tert-butyl ester

>  <PUBCHEM_IUPAC_INCHI>  (17) 
InChI=1S/C18H22N4O2S3/c1-5-22-14(10-26-17-19-12-8-6-7-9-13(12)27-17)20-21-16(22)25-11-15(23)24-18(2,3)4/h6-9H,5,10-11H2,1-4H3

>  <PUBCHEM_IUPAC_INCHIKEY>  (17) 
HDENPJOMHSTYJA-UHFFFAOYSA-N

>  <PUBCHEM_IUPAC_NAME>  (17) 
tert-butyl 2-[[5-(1,3-benzothiazol-2-ylsulfanylmethyl)-4-ethyl-1,2,4-triazol-3-yl]sulfanyl]acetate

>  <PUBCHEM_IUPAC_OPENEYE_NAME>  (17) 
tert-butyl 2-[[5-(1,3-benzothiazol-2-ylsulfanylmethyl)-4-ethyl-1,2,4-triazol-3-yl]sulfanyl]acetate

>  <PUBCHEM_IUPAC_SYSTEMATIC_NAME>  (17) 
tert-butyl 2-[[5-(1,3-benzothiazol-2-ylsulfanylmethyl)-4-ethyl-1,2,4-triazol-3-yl]sulfanyl]ethanoate

>  <PUBCHEM_IUPAC_TRADITIONAL_NAME>  (17) 
2-[[5-[(1,3-benzothiazol-2-ylthio)methyl]-4-ethyl-1,2,4-triazol-3-yl]thio]acetic acid tert-butyl ester

>  <PUBCHEM_MOLECULAR_FORMULA>  (17) 
C18H22N4O2S3

>  <PUBCHEM_MOLECULAR_WEIGHT>  (17) 
422.58788

>  <PUBCHEM_MONOISOTOPIC_WEIGHT>  (17) 
422.090489

>  <PUBCHEM_OPENEYE_CAN_SMILES>  (17) 
CCN1C(=NN=C1SCC(=O)OC(C)(C)C)CSC2=NC3=CC=CC=C3S2

>  <PUBCHEM_OPENEYE_ISO_SMILES>  (17) 
CCN1C(=NN=C1SCC(=O)OC(C)(C)C)CSC2=NC3=CC=CC=C3S2

>  <PUBCHEM_TOTAL_CHARGE>  (17) 
0

>  <PUBCHEM_XLOGP3_AA>  (17) 
4.3

$$$$
Largest isolated from Written by BCL::WriteToMDL,616271
     RDKit          2D

 48 50  0 48  0  0  0  0  0  0999 V2000
   -1.5225    0.4575    0.0000 S   0  0  0  0  0  0  0  0  0  0  0  0
    4.8339   -1.0746    0.0000 O   0  0  0  0  0  0  0  0  0  0  0  0
   -5.5110   -2.8729    0.0000 O   0  0  0  0  0  0  0  0  0  0  0  0
   -0.1161   -3.2536    0.0000 O   0  0  0  0  0  0  0  0  0  0  0  0
   -3.5167   -1.2077    0.0000 N   0  0  0  0  0  0  0  0  0  0  0  0
   -3.9617    1.3519    0.0000 N   0  0  0  0  0  0  0  0  0  0  0  0
    1.8782   -1.5884    0.0000 N   0  0  0  0  0  0  0  0  0  0  0  0
   -5.9560   -0.3133    0.0000 C   0  0  0  0  0  0  0  0  0  0  0  0
    6.3117   -0.8177    0.0000 C   0  0  0  0  0  0  0  0  0  0  0  0
   -5.4395    1.0950    0.0000 C   0  0  0  0  0  0  0  0  0  0  0  0
   -4.9946   -1.4646    0.0000 C   0  0  0  0  0  0  0  0  0  0  0  0
   -3.0003    0.2006    0.0000 C   0  0  0  0  0  0  0  0  0  0  0  0
    3.8725    0.0768    0.0000 C   0  0  0  0  0  0  0  0  0  0  0  0
    2.3946   -0.1801    0.0000 C   0  0  0  0  0  0  0  0  0  0  0  0
   -7.4338   -0.5702    0.0000 C   0  0  0  0  0  0  0  0  0  0  0  0
   -0.5610   -0.6939    0.0000 C   0  0  0  0  0  0  0  0  0  0  0  0
   -6.4009    2.2464    0.0000 C   0  0  0  0  0  0  0  0  0  0  0  0
    6.0548    0.6602    0.0000 C   0  0  0  0  0  0  0  0  0  0  0  0
    7.7895   -0.5608    0.0000 C   0  0  0  0  0  0  0  0  0  0  0  0
   -2.5553   -2.3591    0.0000 C   0  0  0  0  0  0  0  0  0  0  0  0
    4.3889    1.4851    0.0000 C   0  0  0  0  0  0  0  0  0  0  0  0
    1.4332    0.9713    0.0000 C   0  0  0  0  0  0  0  0  0  0  0  0
    0.4004   -1.8453    0.0000 C   0  0  0  0  0  0  0  0  0  0  0  0
   -8.3952    0.5812    0.0000 C   0  0  0  0  0  0  0  0  0  0  0  0
   -7.8788    1.9895    0.0000 C   0  0  0  0  0  0  0  0  0  0  0  0
    3.4275    2.6365    0.0000 C   0  0  0  0  0  0  0  0  0  0  0  0
    1.9496    2.3796    0.0000 C   0  0  0  0  0  0  0  0  0  0  0  0
    6.5686   -2.2955    0.0000 H   0  0  0  0  0  0  0  0  0  0  0  0
   -7.9502   -1.9785    0.0000 H   0  0  0  0  0  0  0  0  0  0  0  0
    0.4646    0.4007    0.0000 H   0  0  0  0  0  0  0  0  0  0  0  0
   -1.1061   -1.2756    0.0000 H   0  0  0  0  0  0  0  0  0  0  0  0
   -5.8845    3.6547    0.0000 H   0  0  0  0  0  0  0  0  0  0  0  0
    6.9024    0.9171    0.0000 H   0  0  0  0  0  0  0  0  0  0  0  0
    8.0464   -2.0386    0.0000 H   0  0  0  0  0  0  0  0  0  0  0  0
    7.7453    0.3239    0.0000 H   0  0  0  0  0  0  0  0  0  0  0  0
    9.2674   -0.3039    0.0000 H   0  0  0  0  0  0  0  0  0  0  0  0
    4.8430    0.7479    0.0000 H   0  0  0  0  0  0  0  0  0  0  0  0
    5.9799    2.1583    0.0000 H   0  0  0  0  0  0  0  0  0  0  0  0
    2.8396   -2.7398    0.0000 H   0  0  0  0  0  0  0  0  0  0  0  0
   -3.7067   -3.3205    0.0000 H   0  0  0  0  0  0  0  0  0  0  0  0
   -1.8857   -1.9266    0.0000 H   0  0  0  0  0  0  0  0  0  0  0  0
   -1.5939   -3.5105    0.0000 H   0  0  0  0  0  0  0  0  0  0  0  0
    5.8244    1.9202    0.0000 H   0  0  0  0  0  0  0  0  0  0  0  0
   -0.0649    0.8964    0.0000 H   0  0  0  0  0  0  0  0  0  0  0  0
   -9.8730    0.3243    0.0000 H   0  0  0  0  0  0  0  0  0  0  0  0
   -8.8402    3.1409    0.0000 H   0  0  0  0  0  0  0  0  0  0  0  0
    3.9439    4.0448    0.0000 H   0  0  0  0  0  0  0  0  0  0  0  0
    0.9882    3.5310    0.0000 H   0  0  0  0  0  0  0  0  0  0  0  0
  1 12  1  0
  1 16  1  0
  2  9  1  0
  2 13  1  0
  3 11  2  0
  4 23  2  0
  5 11  1  0
  5 12  1  0
  5 20  1  0
  6 10  1  0
  6 12  2  0
  7 14  1  0
  7 23  1  0
  7 39  1  0
  8 10  2  0
  8 11  1  0
  8 15  1  0
  9 18  1  0
  9 19  1  0
  9 28  1  0
 10 17  1  0
 13 14  2  0
 13 21  1  0
 14 22  1  0
 15 24  2  0
 15 29  1  0
 16 23  1  0
 16 30  1  0
 16 31  1  0
 17 25  2  0
 17 32  1  0
 18 33  1  0
 18 37  1  0
 18 38  1  0
 19 34  1  0
 19 35  1  0
 19 36  1  0
 20 40  1  0
 20 41  1  0
 20 42  1  0
 21 26  2  0
 21 43  1  0
 22 27  2  0
 22 44  1  0
 24 25  1  0
 24 45  1  0
 25 46  1  0
 26 27  1  0
 26 47  1  0
 27 48  1  0
M  STY  8   1 DAT   2 DAT   3 DAT   4 DAT   5 DAT   6 DAT   7 DAT   8 DAT
M  STY  8   9 DAT  10 DAT  11 DAT  12 DAT  13 DAT  14 DAT  15 DAT  16 DAT
M  STY  8  17 DAT  18 DAT  19 DAT  20 DAT  21 DAT  22 DAT  23 DAT  24 DAT
M  STY  8  25 DAT  26 DAT  27 DAT  28 DAT  29 DAT  30 DAT  31 DAT  32 DAT
M  STY  8  33 DAT  34 DAT  35 DAT  36 DAT  37 DAT  38 DAT  39 DAT  40 DAT
M  STY  8  41 DAT  42 DAT  43 DAT  44 DAT  45 DAT  46 DAT  47 DAT  48 DAT
M  SAL   1  1   1
M  SED   1 [#16&h0]
M  SAL   2  1   2
M  SED   2 [#8&h0]
M  SAL   3  1   3
M  SED   3 [#8&h0]
M  SAL   4  1   4
M  SED   4 [#8&h0]
M  SAL   5  1   5
M  SED   5 [#7&h0]
M  SAL   6  1   6
M  SED   6 [#7&h0]
M  SAL   7  1   7
M  SED   7 [#7&h0]
M  SAL   8  1   8
M  SED   8 [#6&h0]
M  SAL   9  1   9
M  SED   9 [#6&h0]
M  SAL  10  1  10
M  SED  10 [#6&h0]
M  SAL  11  1  11
M  SED  11 [#6&h0]
M  SAL  12  1  12
M  SED  12 [#6&h0]
M  SAL  13  1  13
M  SED  13 [#6&h0]
M  SAL  14  1  14
M  SED  14 [#6&h0]
M  SAL  15  1  15
M  SED  15 [#6&h0]
M  SAL  16  1  16
M  SED  16 [#6&h0]
M  SAL  17  1  17
M  SED  17 [#6&h0]
M  SAL  18  1  18
M  SED  18 [#6&h0]
M  SAL  19  1  19
M  SED  19 [#6&h0]
M  SAL  20  1  20
M  SED  20 [#6&h0]
M  SAL  21  1  21
M  SED  21 [#6&h0]
M  SAL  22  1  22
M  SED  22 [#6&h0]
M  SAL  23  1  23
M  SED  23 [#6&h0]
M  SAL  24  1  24
M  SED  24 [#6&h0]
M  SAL  25  1  25
M  SED  25 [#6&h0]
M  SAL  26  1  26
M  SED  26 [#6&h0]
M  SAL  27  1  27
M  SED  27 [#6&h0]
M  SAL  28  1  28
M  SED  28 [#1&h0]
M  SAL  29  1  29
M  SED  29 [#1&h0]
M  SAL  30  1  30
M  SED  30 [#1&h0]
M  SAL  31  1  31
M  SED  31 [#1&h0]
M  SAL  32  1  32
M  SED  32 [#1&h0]
M  SAL  33  1  33
M  SED  33 [#1&h0]
M  SAL  34  1  34
M  SED  34 [#1&h0]
M  SAL  35  1  35
M  SED  35 [#1&h0]
M  SAL  36  1  36
M  SED  36 [#1&h0]
M  SAL  37  1  37
M  SED  37 [#1&h0]
M  SAL  38  1  38
M  SED  38 [#1&h0]
M  SAL  39  1  39
M  SED  39 [#1&h0]
M  SAL  40  1  40
M  SED  40 [#1&h0]
M  SAL  41  1  41
M  SED  41 [#1&h0]
M  SAL  42  1  42
M  SED  42 [#1&h0]
M  SAL  43  1  43
M  SED  43 [#1&h0]
M  SAL  44  1  44
M  SED  44 [#1&h0]
M  SAL  45  1  45
M  SED  45 [#1&h0]
M  SAL  46  1  46
M  SED  46 [#1&h0]
M  SAL  47  1  47
M  SED  47 [#1&h0]
M  SAL  48  1  48
M  SED  48 [#1&h0]
M  END
>  <Activity>  (18) 
0.01

>  <Mapped(file=2032.csv.activities,property=Cached(PUBCHEM_COMPOUND_CID))>  (18) 
100

>  <MatchIndices>  (18) 
185 

>  <PUBCHEM_ATOM_DEF_STEREO_COUNT>  (18) 
0

>  <PUBCHEM_ATOM_UDEF_STEREO_COUNT>  (18) 
0

>  <PUBCHEM_BONDANNOTATIONS>  (18) 
10  17  8
13  14  8
13  21  8
14  22  8
15  24  8
17  25  8
21  26  8
22  27  8
24  25  8
26  27  8
5  11  8
5  12  8
6  10  8
6  12  8
8  10  8
8  11  8
8  15  8

>  <PUBCHEM_BOND_DEF_STEREO_COUNT>  (18) 
0

>  <PUBCHEM_BOND_UDEF_STEREO_COUNT>  (18) 
0

>  <PUBCHEM_CACTVS_COMPLEXITY>  (18) 
581

>  <PUBCHEM_CACTVS_HBOND_ACCEPTOR>  (18) 
5

>  <PUBCHEM_CACTVS_HBOND_DONOR>  (18) 
1

>  <PUBCHEM_CACTVS_ROTATABLE_BOND>  (18) 
6

>  <PUBCHEM_CACTVS_SUBSKEYS>  (18) 
AAADceB7MABAAAAAAAAAAAAAAAAAAAAAAAAwYIAAAAAAAACBQAAAHgQQAAAADByl2AazxoPABAioAiVSdACCGAFlIhAJiAEPbMgOJjrE/ZuHOajk1hHY6ceYyACOAAAAAAACEAAAAAAAAAQgAAAAAAAAAA==

>  <PUBCHEM_CACTVS_TAUTO_COUNT>  (18) 
3

>  <PUBCHEM_CACTVS_TPSA>  (18) 
96.3

>  <PUBCHEM_COMPONENT_COUNT>  (18) 
1

>  <PUBCHEM_COMPOUND_CANONICALIZED>  (18) 
1

>  <PUBCHEM_COMPOUND_CID>  (18) 
616271

>  <PUBCHEM_COORDINATE_TYPE>  (18) 
1
5
255

>  <PUBCHEM_EXACT_MASS>  (18) 
383.130363

>  <PUBCHEM_HEAVY_ATOM_COUNT>  (18) 
27

>  <PUBCHEM_ISOTOPIC_ATOM_COUNT>  (18) 
0

>  <PUBCHEM_IUPAC_CAS_NAME>  (18) 
2-[(3-methyl-4-oxo-2-quinazolinyl)thio]-N-(2-propan-2-yloxyphenyl)acetamide

>  <PUBCHEM_IUPAC_INCHI>  (18) 
InChI=1S/C20H21N3O3S/c1-13(2)26-17-11-7-6-10-16(17)21-18(24)12-27-20-22-15-9-5-4-8-14(15)19(25)23(20)3/h4-11,13H,12H2,1-3H3,(H,21,24)

>  <PUBCHEM_IUPAC_INCHIKEY>  (18) 
GERKPZFBTRTLJO-UHFFFAOYSA-N

>  <PUBCHEM_IUPAC_NAME>  (18) 
2-(3-methyl-4-oxoquinazolin-2-yl)sulfanyl-N-(2-propan-2-yloxyphenyl)acetamide

>  <PUBCHEM_IUPAC_OPENEYE_NAME>  (18) 
N-(2-isopropoxyphenyl)-2-(3-methyl-4-oxo-quinazolin-2-yl)sulfanyl-acetamide

>  <PUBCHEM_IUPAC_SYSTEMATIC_NAME>  (18) 
2-(3-methyl-4-oxidanylidene-quinazolin-2-yl)sulfanyl-N-(2-propan-2-yloxyphenyl)ethanamide

>  <PUBCHEM_IUPAC_TRADITIONAL_NAME>  (18) 
N-(2-isopropoxyphenyl)-2-[(4-keto-3-methyl-quinazolin-2-yl)thio]acetamide

>  <PUBCHEM_MOLECULAR_FORMULA>  (18) 
C20H21N3O3S

>  <PUBCHEM_MOLECULAR_WEIGHT>  (18) 
383.46404

>  <PUBCHEM_MONOISOTOPIC_WEIGHT>  (18) 
383.130363

>  <PUBCHEM_OPENEYE_CAN_SMILES>  (18) 
CC(C)OC1=CC=CC=C1NC(=O)CSC2=NC3=CC=CC=C3C(=O)N2C

>  <PUBCHEM_OPENEYE_ISO_SMILES>  (18) 
CC(C)OC1=CC=CC=C1NC(=O)CSC2=NC3=CC=CC=C3C(=O)N2C

>  <PUBCHEM_TOTAL_CHARGE>  (18) 
0

>  <PUBCHEM_XLOGP3_AA>  (18) 
3.5

$$$$
Largest isolated from Written by BCL::WriteToMDL,973685
     RDKit          2D

 34 36  0 34  0  0  0  0  0  0999 V2000
   -1.2225    1.6971    0.0000 Cl  0  0  0  0  0  0  0  0  0  0  0  0
   -0.8327   -1.2775    0.0000 S   0  0  0  0  0  0  0  0  0  0  0  0
    1.7959   -0.7920    0.0000 N   0  0  0  0  0  0  0  0  0  0  0  0
    0.3195    1.1344    0.0000 N   0  0  0  0  0  0  0  0  0  0  0  0
   -6.3746    1.0219    0.0000 N   0  0  0  0  0  0  0  0  0  0  0  0
    2.6462    0.4437    0.0000 C   0  0  0  0  0  0  0  0  0  0  0  0
    2.2957   -2.2062    0.0000 C   0  0  0  0  0  0  0  0  0  0  0  0
    1.7338    1.6343    0.0000 C   0  0  0  0  0  0  0  0  0  0  0  0
    0.3579   -0.3651    0.0000 C   0  0  0  0  0  0  0  0  0  0  0  0
    4.1335    0.6386    0.0000 C   0  0  0  0  0  0  0  0  0  0  0  0
    2.3087    3.0198    0.0000 C   0  0  0  0  0  0  0  0  0  0  0  0
    2.7956   -3.6205    0.0000 C   0  0  0  0  0  0  0  0  0  0  0  0
    4.7084    2.0241    0.0000 C   0  0  0  0  0  0  0  0  0  0  0  0
    3.7959    3.2147    0.0000 C   0  0  0  0  0  0  0  0  0  0  0  0
   -2.2181   -0.7027    0.0000 C   0  0  0  0  0  0  0  0  0  0  0  0
   -2.4130    0.7846    0.0000 C   0  0  0  0  0  0  0  0  0  0  0  0
   -3.4087   -1.6151    0.0000 C   0  0  0  0  0  0  0  0  0  0  0  0
   -4.9891    0.4471    0.0000 C   0  0  0  0  0  0  0  0  0  0  0  0
   -3.7985    1.3595    0.0000 C   0  0  0  0  0  0  0  0  0  0  0  0
   -4.7942   -1.0402    0.0000 C   0  0  0  0  0  0  0  0  0  0  0  0
    0.8815   -2.7061    0.0000 H   0  0  0  0  0  0  0  0  0  0  0  0
    3.7100   -1.7064    0.0000 H   0  0  0  0  0  0  0  0  0  0  0  0
    5.0459   -0.5520    0.0000 H   0  0  0  0  0  0  0  0  0  0  0  0
    1.3962    4.2103    0.0000 H   0  0  0  0  0  0  0  0  0  0  0  0
    4.2099   -3.1206    0.0000 H   0  0  0  0  0  0  0  0  0  0  0  0
    1.3813   -4.1204    0.0000 H   0  0  0  0  0  0  0  0  0  0  0  0
    3.2955   -5.0348    0.0000 H   0  0  0  0  0  0  0  0  0  0  0  0
    6.1957    2.2190    0.0000 H   0  0  0  0  0  0  0  0  0  0  0  0
    4.3708    4.6001    0.0000 H   0  0  0  0  0  0  0  0  0  0  0  0
   -3.2138   -3.1024    0.0000 H   0  0  0  0  0  0  0  0  0  0  0  0
   -3.9934    2.8468    0.0000 H   0  0  0  0  0  0  0  0  0  0  0  0
   -5.9848   -1.9527    0.0000 H   0  0  0  0  0  0  0  0  0  0  0  0
   -6.5695    2.5092    0.0000 H   0  0  0  0  0  0  0  0  0  0  0  0
   -7.5651    0.1095    0.0000 H   0  0  0  0  0  0  0  0  0  0  0  0
  1 16  1  0
  2  9  1  0
  2 15  1  0
  3  6  1  0
  3  7  1  0
  3  9  1  0
  4  8  1  0
  4  9  2  0
  5 18  1  0
  5 33  1  0
  5 34  1  0
  6  8  2  0
  6 10  1  0
  7 12  1  0
  7 21  1  0
  7 22  1  0
  8 11  1  0
 10 13  2  0
 10 23  1  0
 11 14  2  0
 11 24  1  0
 12 25  1  0
 12 26  1  0
 12 27  1  0
 13 14  1  0
 13 28  1  0
 14 29  1  0
 15 16  2  0
 15 17  1  0
 16 19  1  0
 17 20  2  0
 17 30  1  0
 18 19  2  0
 18 20  1  0
 19 31  1  0
 20 32  1  0
M  STY  8   1 DAT   2 DAT   3 DAT   4 DAT   5 DAT   6 DAT   7 DAT   8 DAT
M  STY  8   9 DAT  10 DAT  11 DAT  12 DAT  13 DAT  14 DAT  15 DAT  16 DAT
M  STY  8  17 DAT  18 DAT  19 DAT  20 DAT  21 DAT  22 DAT  23 DAT  24 DAT
M  STY  8  25 DAT  26 DAT  27 DAT  28 DAT  29 DAT  30 DAT  31 DAT  32 DAT
M  STY  2  33 DAT  34 DAT
M  SAL   1  1   1
M  SED   1 [#17&h0]
M  SAL   2  1   2
M  SED   2 [#16&h0]
M  SAL   3  1   3
M  SED   3 [#7&h0]
M  SAL   4  1   4
M  SED   4 [#7&h0]
M  SAL   5  1   5
M  SED   5 [#7&h0]
M  SAL   6  1   6
M  SED   6 [#6&h0]
M  SAL   7  1   7
M  SED   7 [#6&h0]
M  SAL   8  1   8
M  SED   8 [#6&h0]
M  SAL   9  1   9
M  SED   9 [#6&h0]
M  SAL  10  1  10
M  SED  10 [#6&h0]
M  SAL  11  1  11
M  SED  11 [#6&h0]
M  SAL  12  1  12
M  SED  12 [#6&h0]
M  SAL  13  1  13
M  SED  13 [#6&h0]
M  SAL  14  1  14
M  SED  14 [#6&h0]
M  SAL  15  1  15
M  SED  15 [#6&h0]
M  SAL  16  1  16
M  SED  16 [#6&h0]
M  SAL  17  1  17
M  SED  17 [#6&h0]
M  SAL  18  1  18
M  SED  18 [#6&h0]
M  SAL  19  1  19
M  SED  19 [#6&h0]
M  SAL  20  1  20
M  SED  20 [#6&h0]
M  SAL  21  1  21
M  SED  21 [#1&h0]
M  SAL  22  1  22
M  SED  22 [#1&h0]
M  SAL  23  1  23
M  SED  23 [#1&h0]
M  SAL  24  1  24
M  SED  24 [#1&h0]
M  SAL  25  1  25
M  SED  25 [#1&h0]
M  SAL  26  1  26
M  SED  26 [#1&h0]
M  SAL  27  1  27
M  SED  27 [#1&h0]
M  SAL  28  1  28
M  SED  28 [#1&h0]
M  SAL  29  1  29
M  SED  29 [#1&h0]
M  SAL  30  1  30
M  SED  30 [#1&h0]
M  SAL  31  1  31
M  SED  31 [#1&h0]
M  SAL  32  1  32
M  SED  32 [#1&h0]
M  SAL  33  1  33
M  SED  33 [#1&h0]
M  SAL  34  1  34
M  SED  34 [#1&h0]
M  END
>  <Activity>  (19) 
0.01

>  <Mapped(file=2032.csv.activities,property=Cached(PUBCHEM_COMPOUND_CID))>  (19) 
100

>  <MatchIndices>  (19) 
152 

>  <PUBCHEM_ATOM_DEF_STEREO_COUNT>  (19) 
0

>  <PUBCHEM_ATOM_UDEF_STEREO_COUNT>  (19) 
0

>  <PUBCHEM_BONDANNOTATIONS>  (19) 
10  13  8
11  14  8
13  14  8
15  16  8
15  17  8
16  19  8
17  20  8
18  19  8
18  20  8
3  6  8
3  9  8
4  8  8
4  9  8
6  10  8
6  8  8
8  11  8

>  <PUBCHEM_BOND_DEF_STEREO_COUNT>  (19) 
0

>  <PUBCHEM_BOND_UDEF_STEREO_COUNT>  (19) 
0

>  <PUBCHEM_CACTVS_COMPLEXITY>  (19) 
330

>  <PUBCHEM_CACTVS_HBOND_ACCEPTOR>  (19) 
2

>  <PUBCHEM_CACTVS_HBOND_DONOR>  (19) 
1

>  <PUBCHEM_CACTVS_ROTATABLE_BOND>  (19) 
3

>  <PUBCHEM_CACTVS_SUBSKEYS>  (19) 
AAADccBzAABEAAAAAAAAAAAAAAAAAWAAAAAwYAAAAAAAAFgB9AAAHAYQAAAACArBViQz0bdMEAigASRiZACC0C1hH7AJ2Dg4dpiIaKLhm5GUIAhokALIyCcQAAAAAAQAAAIAAKAACAAABAABQAAAAAAAAA==

>  <PUBCHEM_CACTVS_TAUTO_COUNT>  (19) 
1

>  <PUBCHEM_CACTVS_TPSA>  (19) 
69.1

>  <PUBCHEM_COMPONENT_COUNT>  (19) 
1

>  <PUBCHEM_COMPOUND_CANONICALIZED>  (19) 
1

>  <PUBCHEM_COMPOUND_CID>  (19) 
973685

>  <PUBCHEM_COORDINATE_TYPE>  (19) 
1
5
255

>  <PUBCHEM_EXACT_MASS>  (19) 
303.059696

>  <PUBCHEM_HEAVY_ATOM_COUNT>  (19) 
20

>  <PUBCHEM_ISOTOPIC_ATOM_COUNT>  (19) 
0

>  <PUBCHEM_IUPAC_CAS_NAME>  (19) 
3-chloro-4-[(1-ethyl-2-benzimidazolyl)thio]aniline

>  <PUBCHEM_IUPAC_INCHI>  (19) 
InChI=1S/C15H14ClN3S/c1-2-19-13-6-4-3-5-12(13)18-15(19)20-14-8-7-10(17)9-11(14)16/h3-9H,2,17H2,1H3

>  <PUBCHEM_IUPAC_INCHIKEY>  (19) 
FDLVLPJOYWAMMU-UHFFFAOYSA-N

>  <PUBCHEM_IUPAC_NAME>  (19) 
3-chloro-4-(1-ethylbenzimidazol-2-yl)sulfanylaniline

>  <PUBCHEM_IUPAC_OPENEYE_NAME>  (19) 
3-chloro-4-(1-ethylbenzimidazol-2-yl)sulfanyl-aniline

>  <PUBCHEM_IUPAC_SYSTEMATIC_NAME>  (19) 
3-chloranyl-4-(1-ethylbenzimidazol-2-yl)sulfanyl-aniline

>  <PUBCHEM_IUPAC_TRADITIONAL_NAME>  (19) 
[3-chloro-4-[(1-ethylbenzimidazol-2-yl)thio]phenyl]amine

>  <PUBCHEM_MOLECULAR_FORMULA>  (19) 
C15H14ClN3S

>  <PUBCHEM_MOLECULAR_WEIGHT>  (19) 
303.80976

>  <PUBCHEM_MONOISOTOPIC_WEIGHT>  (19) 
303.059696

>  <PUBCHEM_OPENEYE_CAN_SMILES>  (19) 
CCN1C2=CC=CC=C2N=C1SC3=C(C=C(C=C3)N)Cl

>  <PUBCHEM_OPENEYE_ISO_SMILES>  (19) 
CCN1C2=CC=CC=C2N=C1SC3=C(C=C(C=C3)N)Cl

>  <PUBCHEM_TOTAL_CHARGE>  (19) 
0

>  <PUBCHEM_XLOGP3_AA>  (19) 
4.1

$$$$
Largest isolated from Written by BCL::WriteToMDL,2122091
     RDKit          2D

 47 50  0 47  0  0  0  0  0  0999 V2000
   -5.7884   -0.5159    0.0000 S   0  0  0  0  0  0  0  0  0  0  0  0
    2.5629   -0.4417    0.0000 O   0  0  0  0  0  0  0  0  0  0  0  0
    7.9223   -0.3093    0.0000 O   0  0  0  0  0  0  0  0  0  0  0  0
    2.1360    2.1211    0.0000 O   0  0  0  0  0  0  0  0  0  0  0  0
   -2.8292   -0.0230    0.0000 N   0  0  0  0  0  0  0  0  0  0  0  0
    7.6758    1.1704    0.0000 N   0  0  0  0  0  0  0  0  0  0  0  0
   -1.3496    0.2235    0.0000 C   0  0  0  0  0  0  0  0  0  0  0  0
   -3.7824    1.1352    0.0000 C   0  0  0  0  0  0  0  0  0  0  0  0
   -3.3555   -1.4276    0.0000 C   0  0  0  0  0  0  0  0  0  0  0  0
    0.1301    0.4700    0.0000 C   0  0  0  0  0  0  0  0  0  0  0  0
   -5.2620    0.8887    0.0000 C   0  0  0  0  0  0  0  0  0  0  0  0
   -4.8351   -1.6741    0.0000 C   0  0  0  0  0  0  0  0  0  0  0  0
   -3.2561    2.5398    0.0000 C   0  0  0  0  0  0  0  0  0  0  0  0
   -2.4023   -2.5857    0.0000 C   0  0  0  0  0  0  0  0  0  0  0  0
   -5.3615   -3.0787    0.0000 C   0  0  0  0  0  0  0  0  0  0  0  0
   -6.2153    2.0468    0.0000 C   0  0  0  0  0  0  0  0  0  0  0  0
    1.6097    0.7165    0.0000 C   0  0  0  0  0  0  0  0  0  0  0  0
   -2.9286   -3.9903    0.0000 C   0  0  0  0  0  0  0  0  0  0  0  0
   -4.2093    3.6979    0.0000 C   0  0  0  0  0  0  0  0  0  0  0  0
   -4.4082   -4.2368    0.0000 C   0  0  0  0  0  0  0  0  0  0  0  0
   -5.6889    3.4515    0.0000 C   0  0  0  0  0  0  0  0  0  0  0  0
    4.0425   -0.1952    0.0000 C   0  0  0  0  0  0  0  0  0  0  0  0
    5.5222    0.0513    0.0000 C   0  0  0  0  0  0  0  0  0  0  0  0
    6.5913   -1.0009    0.0000 C   0  0  0  0  0  0  0  0  0  0  0  0
    6.1924    1.3932    0.0000 C   0  0  0  0  0  0  0  0  0  0  0  0
    6.3684   -2.4842    0.0000 C   0  0  0  0  0  0  0  0  0  0  0  0
    5.5008    2.7242    0.0000 C   0  0  0  0  0  0  0  0  0  0  0  0
   -1.1031   -1.2561    0.0000 H   0  0  0  0  0  0  0  0  0  0  0  0
   -1.5960    1.7031    0.0000 H   0  0  0  0  0  0  0  0  0  0  0  0
    0.3765   -1.0096    0.0000 H   0  0  0  0  0  0  0  0  0  0  0  0
   -0.1164    1.9496    0.0000 H   0  0  0  0  0  0  0  0  0  0  0  0
   -1.7765    2.7863    0.0000 H   0  0  0  0  0  0  0  0  0  0  0  0
   -0.9226   -2.3393    0.0000 H   0  0  0  0  0  0  0  0  0  0  0  0
   -7.6949    1.8004    0.0000 H   0  0  0  0  0  0  0  0  0  0  0  0
   -6.8411   -3.3252    0.0000 H   0  0  0  0  0  0  0  0  0  0  0  0
   -3.6830    5.1026    0.0000 H   0  0  0  0  0  0  0  0  0  0  0  0
   -1.9753   -5.1485    0.0000 H   0  0  0  0  0  0  0  0  0  0  0  0
    4.1068   -1.6938    0.0000 H   0  0  0  0  0  0  0  0  0  0  0  0
    3.6175    1.2433    0.0000 H   0  0  0  0  0  0  0  0  0  0  0  0
   -6.6422    4.6096    0.0000 H   0  0  0  0  0  0  0  0  0  0  0  0
   -4.9346   -5.6414    0.0000 H   0  0  0  0  0  0  0  0  0  0  0  0
    4.8690   -2.4439    0.0000 H   0  0  0  0  0  0  0  0  0  0  0  0
    7.8518   -2.7071    0.0000 H   0  0  0  0  0  0  0  0  0  0  0  0
    6.1456   -3.9676    0.0000 H   0  0  0  0  0  0  0  0  0  0  0  0
    6.8318    3.4158    0.0000 H   0  0  0  0  0  0  0  0  0  0  0  0
    4.0954    2.2000    0.0000 H   0  0  0  0  0  0  0  0  0  0  0  0
    4.8092    4.0552    0.0000 H   0  0  0  0  0  0  0  0  0  0  0  0
  1 11  1  0
  1 12  1  0
  2 17  1  0
  2 22  1  0
  3  6  1  0
  3 24  1  0
  4 17  2  0
  5  7  1  0
  5  8  1  0
  5  9  1  0
  6 25  2  0
  7 10  1  0
  7 28  1  0
  7 29  1  0
  8 11  2  0
  8 13  1  0
  9 12  2  0
  9 14  1  0
 10 17  1  0
 10 30  1  0
 10 31  1  0
 11 16  1  0
 12 15  1  0
 13 19  2  0
 13 32  1  0
 14 18  2  0
 14 33  1  0
 15 20  2  0
 15 35  1  0
 16 21  2  0
 16 34  1  0
 18 20  1  0
 18 37  1  0
 19 21  1  0
 19 36  1  0
 20 41  1  0
 21 40  1  0
 22 23  1  0
 22 38  1  0
 22 39  1  0
 23 24  2  0
 23 25  1  0
 24 26  1  0
 25 27  1  0
 26 42  1  0
 26 43  1  0
 26 44  1  0
 27 45  1  0
 27 46  1  0
 27 47  1  0
M  STY  8   1 DAT   2 DAT   3 DAT   4 DAT   5 DAT   6 DAT   7 DAT   8 DAT
M  STY  8   9 DAT  10 DAT  11 DAT  12 DAT  13 DAT  14 DAT  15 DAT  16 DAT
M  STY  8  17 DAT  18 DAT  19 DAT  20 DAT  21 DAT  22 DAT  23 DAT  24 DAT
M  STY  8  25 DAT  26 DAT  27 DAT  28 DAT  29 DAT  30 DAT  31 DAT  32 DAT
M  STY  8  33 DAT  34 DAT  35 DAT  36 DAT  37 DAT  38 DAT  39 DAT  40 DAT
M  STY  7  41 DAT  42 DAT  43 DAT  44 DAT  45 DAT  46 DAT  47 DAT
M  SAL   1  1   1
M  SED   1 [#16&h0]
M  SAL   2  1   2
M  SED   2 [#8&h0]
M  SAL   3  1   3
M  SED   3 [#8&h0]
M  SAL   4  1   4
M  SED   4 [#8&h0]
M  SAL   5  1   5
M  SED   5 [#7&h0]
M  SAL   6  1   6
M  SED   6 [#7&h0]
M  SAL   7  1   7
M  SED   7 [#6&h0]
M  SAL   8  1   8
M  SED   8 [#6&h0]
M  SAL   9  1   9
M  SED   9 [#6&h0]
M  SAL  10  1  10
M  SED  10 [#6&h0]
M  SAL  11  1  11
M  SED  11 [#6&h0]
M  SAL  12  1  12
M  SED  12 [#6&h0]
M  SAL  13  1  13
M  SED  13 [#6&h0]
M  SAL  14  1  14
M  SED  14 [#6&h0]
M  SAL  15  1  15
M  SED  15 [#6&h0]
M  SAL  16  1  16
M  SED  16 [#6&h0]
M  SAL  17  1  17
M  SED  17 [#6&h0]
M  SAL  18  1  18
M  SED  18 [#6&h0]
M  SAL  19  1  19
M  SED  19 [#6&h0]
M  SAL  20  1  20
M  SED  20 [#6&h0]
M  SAL  21  1  21
M  SED  21 [#6&h0]
M  SAL  22  1  22
M  SED  22 [#6&h0]
M  SAL  23  1  23
M  SED  23 [#6&h0]
M  SAL  24  1  24
M  SED  24 [#6&h0]
M  SAL  25  1  25
M  SED  25 [#6&h0]
M  SAL  26  1  26
M  SED  26 [#6&h0]
M  SAL  27  1  27
M  SED  27 [#6&h0]
M  SAL  28  1  28
M  SED  28 [#1&h0]
M  SAL  29  1  29
M  SED  29 [#1&h0]
M  SAL  30  1  30
M  SED  30 [#1&h0]
M  SAL  31  1  31
M  SED  31 [#1&h0]
M  SAL  32  1  32
M  SED  32 [#1&h0]
M  SAL  33  1  33
M  SED  33 [#1&h0]
M  SAL  34  1  34
M  SED  34 [#1&h0]
M  SAL  35  1  35
M  SED  35 [#1&h0]
M  SAL  36  1  36
M  SED  36 [#1&h0]
M  SAL  37  1  37
M  SED  37 [#1&h0]
M  SAL  38  1  38
M  SED  38 [#1&h0]
M  SAL  39  1  39
M  SED  39 [#1&h0]
M  SAL  40  1  40
M  SED  40 [#1&h0]
M  SAL  41  1  41
M  SED  41 [#1&h0]
M  SAL  42  1  42
M  SED  42 [#1&h0]
M  SAL  43  1  43
M  SED  43 [#1&h0]
M  SAL  44  1  44
M  SED  44 [#1&h0]
M  SAL  45  1  45
M  SED  45 [#1&h0]
M  SAL  46  1  46
M  SED  46 [#1&h0]
M  SAL  47  1  47
M  SED  47 [#1&h0]
M  END
>  <Activity>  (20) 
0.01

>  <Mapped(file=2032.csv.activities,property=Cached(PUBCHEM_COMPOUND_CID))>  (20) 
100

>  <MatchIndices>  (20) 
184 

>  <PUBCHEM_ATOM_DEF_STEREO_COUNT>  (20) 
0

>  <PUBCHEM_ATOM_UDEF_STEREO_COUNT>  (20) 
0

>  <PUBCHEM_BONDANNOTATIONS>  (20) 
11  16  8
12  15  8
13  19  8
14  18  8
15  20  8
16  21  8
18  20  8
19  21  8
23  24  8
23  25  8
3  24  8
3  6  8
6  25  8
8  11  8
8  13  8
9  12  8
9  14  8

>  <PUBCHEM_BOND_DEF_STEREO_COUNT>  (20) 
0

>  <PUBCHEM_BOND_UDEF_STEREO_COUNT>  (20) 
0

>  <PUBCHEM_CACTVS_COMPLEXITY>  (20) 
498

>  <PUBCHEM_CACTVS_HBOND_ACCEPTOR>  (20) 
6

>  <PUBCHEM_CACTVS_HBOND_DONOR>  (20) 
0

>  <PUBCHEM_CACTVS_ROTATABLE_BOND>  (20) 
6

>  <PUBCHEM_CACTVS_SUBSKEYS>  (20) 
AAADceB7MABAAAAAAAAAAAAAAAAAAWAAAAA8YIAAAAAAAACx0AAAHgQEAAAADAzh3gYyzZMQBAipA6TySgCCAAAlKhAomD08bNoIJ37gsZuGMYhnoBjo6UcQAAAKAAAAAAAAAQAAAAAAAAACAAAAAAAAAA==

>  <PUBCHEM_CACTVS_TAUTO_COUNT>  (20) 
1

>  <PUBCHEM_CACTVS_TPSA>  (20) 
80.9

>  <PUBCHEM_COMPONENT_COUNT>  (20) 
1

>  <PUBCHEM_COMPOUND_CANONICALIZED>  (20) 
1

>  <PUBCHEM_COMPOUND_CID>  (20) 
2122091

>  <PUBCHEM_COORDINATE_TYPE>  (20) 
1
5
255

>  <PUBCHEM_EXACT_MASS>  (20) 
380.119464

>  <PUBCHEM_HEAVY_ATOM_COUNT>  (20) 
27

>  <PUBCHEM_ISOTOPIC_ATOM_COUNT>  (20) 
0

>  <PUBCHEM_IUPAC_CAS_NAME>  (20) 
3-(10-phenothiazinyl)propanoic acid (3,5-dimethyl-4-isoxazolyl)methyl ester

>  <PUBCHEM_IUPAC_INCHI>  (20) 
InChI=1S/C21H20N2O3S/c1-14-16(15(2)26-22-14)13-25-21(24)11-12-23-17-7-3-5-9-19(17)27-20-10-6-4-8-18(20)23/h3-10H,11-13H2,1-2H3

>  <PUBCHEM_IUPAC_INCHIKEY>  (20) 
BHUNAONCKHLKJX-UHFFFAOYSA-N

>  <PUBCHEM_IUPAC_NAME>  (20) 
(3,5-dimethyl-1,2-oxazol-4-yl)methyl 3-phenothiazin-10-ylpropanoate

>  <PUBCHEM_IUPAC_OPENEYE_NAME>  (20) 
(3,5-dimethylisoxazol-4-yl)methyl 3-phenothiazin-10-ylpropanoate

>  <PUBCHEM_IUPAC_SYSTEMATIC_NAME>  (20) 
(3,5-dimethyl-1,2-oxazol-4-yl)methyl 3-phenothiazin-10-ylpropanoate

>  <PUBCHEM_IUPAC_TRADITIONAL_NAME>  (20) 
3-phenothiazin-10-ylpropionic acid (3,5-dimethylisoxazol-4-yl)methyl ester

>  <PUBCHEM_MOLECULAR_FORMULA>  (20) 
C21H20N2O3S

>  <PUBCHEM_MOLECULAR_WEIGHT>  (20) 
380.4601

>  <PUBCHEM_MONOISOTOPIC_WEIGHT>  (20) 
380.119464

>  <PUBCHEM_OPENEYE_CAN_SMILES>  (20) 
CC1=C(C(=NO1)C)COC(=O)CCN2C3=CC=CC=C3SC4=CC=CC=C42

>  <PUBCHEM_OPENEYE_ISO_SMILES>  (20) 
CC1=C(C(=NO1)C)COC(=O)CCN2C3=CC=CC=C3SC4=CC=CC=C42

>  <PUBCHEM_TOTAL_CHARGE>  (20) 
0

>  <PUBCHEM_XLOGP3_AA>  (20) 
4.3

$$$$
Largest isolated from Written by BCL::WriteToMDL,1263189
     RDKit          2D

 37 38  0 37  0  0  0  0  0  0999 V2000
   -1.2147    1.1792    0.0000 S   0  0  0  0  0  0  0  0  0  0  0  0
   -4.9646    0.1777    0.0000 S   0  0  0  0  0  0  0  0  0  0  0  0
   -0.5549   -0.1679    0.0000 O   0  0  0  0  0  0  0  0  0  0  0  0
   -1.7053    2.5967    0.0000 O   0  0  0  0  0  0  0  0  0  0  0  0
    5.1122   -1.5080    0.0000 O   0  0  0  0  0  0  0  0  0  0  0  0
    0.1325    1.8389    0.0000 N   0  0  0  0  0  0  0  0  0  0  0  0
   -2.5618    0.5194    0.0000 C   0  0  0  0  0  0  0  0  0  0  0  0
    1.3774    1.0022    0.0000 C   0  0  0  0  0  0  0  0  0  0  0  0
   -3.8873    1.2214    0.0000 C   0  0  0  0  0  0  0  0  0  0  0  0
   -2.8198   -0.9582    0.0000 C   0  0  0  0  0  0  0  0  0  0  0  0
    2.5201   -1.3311    0.0000 C   0  0  0  0  0  0  0  0  0  0  0  0
    3.9694    0.8252    0.0000 C   0  0  0  0  0  0  0  0  0  0  0  0
    2.7245    1.6620    0.0000 C   0  0  0  0  0  0  0  0  0  0  0  0
    1.2752   -0.4943    0.0000 C   0  0  0  0  0  0  0  0  0  0  0  0
   -4.3049   -1.1694    0.0000 C   0  0  0  0  0  0  0  0  0  0  0  0
    3.8673   -0.6713    0.0000 C   0  0  0  0  0  0  0  0  0  0  0  0
   -4.0985    2.7065    0.0000 C   0  0  0  0  0  0  0  0  0  0  0  0
    2.4180   -2.8276    0.0000 C   0  0  0  0  0  0  0  0  0  0  0  0
    5.3165    1.4850    0.0000 C   0  0  0  0  0  0  0  0  0  0  0  0
   -5.0069   -2.4950    0.0000 C   0  0  0  0  0  0  0  0  0  0  0  0
    0.2346    3.3355    0.0000 H   0  0  0  0  0  0  0  0  0  0  0  0
   -1.7760   -2.0355    0.0000 H   0  0  0  0  0  0  0  0  0  0  0  0
    2.8267    3.1585    0.0000 H   0  0  0  0  0  0  0  0  0  0  0  0
   -0.0719   -1.1541    0.0000 H   0  0  0  0  0  0  0  0  0  0  0  0
   -2.6503    3.0971    0.0000 H   0  0  0  0  0  0  0  0  0  0  0  0
   -5.5836    2.4953    0.0000 H   0  0  0  0  0  0  0  0  0  0  0  0
   -4.3097    4.1915    0.0000 H   0  0  0  0  0  0  0  0  0  0  0  0
    3.9145   -2.9297    0.0000 H   0  0  0  0  0  0  0  0  0  0  0  0
    0.9215   -2.7254    0.0000 H   0  0  0  0  0  0  0  0  0  0  0  0
    2.3158   -4.3241    0.0000 H   0  0  0  0  0  0  0  0  0  0  0  0
    5.9763    0.1379    0.0000 H   0  0  0  0  0  0  0  0  0  0  0  0
    4.6568    2.8321    0.0000 H   0  0  0  0  0  0  0  0  0  0  0  0
    6.6636    2.1448    0.0000 H   0  0  0  0  0  0  0  0  0  0  0  0
   -6.3325   -1.7930    0.0000 H   0  0  0  0  0  0  0  0  0  0  0  0
   -3.6813   -3.1970    0.0000 H   0  0  0  0  0  0  0  0  0  0  0  0
   -5.7089   -3.8206    0.0000 H   0  0  0  0  0  0  0  0  0  0  0  0
    5.0100   -3.0045    0.0000 H   0  0  0  0  0  0  0  0  0  0  0  0
  1  3  2  0
  1  4  2  0
  1  6  1  0
  1  7  1  0
  2  9  1  0
  2 15  1  0
  5 16  1  0
  5 37  1  0
  6  8  1  0
  6 21  1  0
  7  9  2  0
  7 10  1  0
  8 13  2  0
  8 14  1  0
  9 17  1  0
 10 15  2  0
 10 22  1  0
 11 14  2  0
 11 16  1  0
 11 18  1  0
 12 13  1  0
 12 16  2  0
 12 19  1  0
 13 23  1  0
 14 24  1  0
 15 20  1  0
 17 25  1  0
 17 26  1  0
 17 27  1  0
 18 28  1  0
 18 29  1  0
 18 30  1  0
 19 31  1  0
 19 32  1  0
 19 33  1  0
 20 34  1  0
 20 35  1  0
 20 36  1  0
M  STY  8   1 DAT   2 DAT   3 DAT   4 DAT   5 DAT   6 DAT   7 DAT   8 DAT
M  STY  8   9 DAT  10 DAT  11 DAT  12 DAT  13 DAT  14 DAT  15 DAT  16 DAT
M  STY  8  17 DAT  18 DAT  19 DAT  20 DAT  21 DAT  22 DAT  23 DAT  24 DAT
M  STY  8  25 DAT  26 DAT  27 DAT  28 DAT  29 DAT  30 DAT  31 DAT  32 DAT
M  STY  5  33 DAT  34 DAT  35 DAT  36 DAT  37 DAT
M  SAL   1  1   1
M  SED   1 [#16&h0]
M  SAL   2  1   2
M  SED   2 [#16&h0]
M  SAL   3  1   3
M  SED   3 [#8&h0]
M  SAL   4  1   4
M  SED   4 [#8&h0]
M  SAL   5  1   5
M  SED   5 [#8&h0]
M  SAL   6  1   6
M  SED   6 [#7&h0]
M  SAL   7  1   7
M  SED   7 [#6&h0]
M  SAL   8  1   8
M  SED   8 [#6&h0]
M  SAL   9  1   9
M  SED   9 [#6&h0]
M  SAL  10  1  10
M  SED  10 [#6&h0]
M  SAL  11  1  11
M  SED  11 [#6&h0]
M  SAL  12  1  12
M  SED  12 [#6&h0]
M  SAL  13  1  13
M  SED  13 [#6&h0]
M  SAL  14  1  14
M  SED  14 [#6&h0]
M  SAL  15  1  15
M  SED  15 [#6&h0]
M  SAL  16  1  16
M  SED  16 [#6&h0]
M  SAL  17  1  17
M  SED  17 [#6&h0]
M  SAL  18  1  18
M  SED  18 [#6&h0]
M  SAL  19  1  19
M  SED  19 [#6&h0]
M  SAL  20  1  20
M  SED  20 [#6&h0]
M  SAL  21  1  21
M  SED  21 [#1&h0]
M  SAL  22  1  22
M  SED  22 [#1&h0]
M  SAL  23  1  23
M  SED  23 [#1&h0]
M  SAL  24  1  24
M  SED  24 [#1&h0]
M  SAL  25  1  25
M  SED  25 [#1&h0]
M  SAL  26  1  26
M  SED  26 [#1&h0]
M  SAL  27  1  27
M  SED  27 [#1&h0]
M  SAL  28  1  28
M  SED  28 [#1&h0]
M  SAL  29  1  29
M  SED  29 [#1&h0]
M  SAL  30  1  30
M  SED  30 [#1&h0]
M  SAL  31  1  31
M  SED  31 [#1&h0]
M  SAL  32  1  32
M  SED  32 [#1&h0]
M  SAL  33  1  33
M  SED  33 [#1&h0]
M  SAL  34  1  34
M  SED  34 [#1&h0]
M  SAL  35  1  35
M  SED  35 [#1&h0]
M  SAL  36  1  36
M  SED  36 [#1&h0]
M  SAL  37  1  37
M  SED  37 [#1&h0]
M  END
>  <Activity>  (21) 
0.01

>  <Mapped(file=2032.csv.activities,property=Cached(PUBCHEM_COMPOUND_CID))>  (21) 
100

>  <MatchIndices>  (21) 
160 

>  <PUBCHEM_ATOM_DEF_STEREO_COUNT>  (21) 
0

>  <PUBCHEM_ATOM_UDEF_STEREO_COUNT>  (21) 
0

>  <PUBCHEM_BONDANNOTATIONS>  (21) 
10  15  8
11  14  8
11  16  8
12  13  8
12  16  8
2  15  8
2  9  8
7  10  8
7  9  8
8  13  8
8  14  8

>  <PUBCHEM_BOND_DEF_STEREO_COUNT>  (21) 
0

>  <PUBCHEM_BOND_UDEF_STEREO_COUNT>  (21) 
0

>  <PUBCHEM_CACTVS_COMPLEXITY>  (21) 
422

>  <PUBCHEM_CACTVS_HBOND_ACCEPTOR>  (21) 
5

>  <PUBCHEM_CACTVS_HBOND_DONOR>  (21) 
2

>  <PUBCHEM_CACTVS_ROTATABLE_BOND>  (21) 
3

>  <PUBCHEM_CACTVS_SUBSKEYS>  (21) 
AAADceByMABgAAAAAAAAAAAAAAAAASAAAAAwAAAAAAAAAAABwAAAHgQQSAAADAyB2AAyx4BAAgqEAiRCQHDDAJAgKhBAiBgEbIgIJiKikZOAcABk0BEo2AewwGAOAEACQAAIAAAAgASAABAAAAAAAAAAAA==

>  <PUBCHEM_CACTVS_TAUTO_COUNT>  (21) 
2

>  <PUBCHEM_CACTVS_TPSA>  (21) 
103

>  <PUBCHEM_COMPONENT_COUNT>  (21) 
1

>  <PUBCHEM_COMPOUND_CANONICALIZED>  (21) 
1

>  <PUBCHEM_COMPOUND_CID>  (21) 
1263189

>  <PUBCHEM_COORDINATE_TYPE>  (21) 
1
5
255

>  <PUBCHEM_EXACT_MASS>  (21) 
311.064985

>  <PUBCHEM_HEAVY_ATOM_COUNT>  (21) 
20

>  <PUBCHEM_ISOTOPIC_ATOM_COUNT>  (21) 
0

>  <PUBCHEM_IUPAC_CAS_NAME>  (21) 
N-(4-hydroxy-3,5-dimethylphenyl)-2,5-dimethyl-3-thiophenesulfonamide

>  <PUBCHEM_IUPAC_INCHI>  (21) 
InChI=1S/C14H17NO3S2/c1-8-5-12(6-9(2)14(8)16)15-20(17,18)13-7-10(3)19-11(13)4/h5-7,15-16H,1-4H3

>  <PUBCHEM_IUPAC_INCHIKEY>  (21) 
IWORMWOSTFKLJS-UHFFFAOYSA-N

>  <PUBCHEM_IUPAC_NAME>  (21) 
N-(4-hydroxy-3,5-dimethylphenyl)-2,5-dimethylthiophene-3-sulfonamide

>  <PUBCHEM_IUPAC_OPENEYE_NAME>  (21) 
N-(4-hydroxy-3,5-dimethyl-phenyl)-2,5-dimethyl-thiophene-3-sulfonamide

>  <PUBCHEM_IUPAC_SYSTEMATIC_NAME>  (21) 
N-(3,5-dimethyl-4-oxidanyl-phenyl)-2,5-dimethyl-thiophene-3-sulfonamide

>  <PUBCHEM_IUPAC_TRADITIONAL_NAME>  (21) 
N-(4-hydroxy-3,5-dimethyl-phenyl)-2,5-dimethyl-thiophene-3-sulfonamide

>  <PUBCHEM_MOLECULAR_FORMULA>  (21) 
C14H17NO3S2

>  <PUBCHEM_MOLECULAR_WEIGHT>  (21) 
311.41968

>  <PUBCHEM_MONOISOTOPIC_WEIGHT>  (21) 
311.064985

>  <PUBCHEM_OPENEYE_CAN_SMILES>  (21) 
CC1=CC(=CC(=C1O)C)NS(=O)(=O)C2=C(SC(=C2)C)C

>  <PUBCHEM_OPENEYE_ISO_SMILES>  (21) 
CC1=CC(=CC(=C1O)C)NS(=O)(=O)C2=C(SC(=C2)C)C

>  <PUBCHEM_TOTAL_CHARGE>  (21) 
0

>  <PUBCHEM_XLOGP3_AA>  (21) 
3.3

$$$$
Largest isolated from Written by BCL::WriteToMDL,6602960
     RDKit          2D

 44 47  0 44  0  0  0  0  0  0999 V2000
    7.1310    0.7039    0.0000 O   0  0  0  0  0  0  0  0  0  0  0  0
   -3.5665   -0.8968    0.0000 N   0  0  0  0  0  0  0  0  0  0  0  0
   -0.9912   -1.2400    0.0000 N   0  0  0  0  0  0  0  0  0  0  0  0
    0.5937    0.8186    0.0000 N   0  0  0  0  0  0  0  0  0  0  0  0
    1.5841   -1.5833    0.0000 N   0  0  0  0  0  0  0  0  0  0  0  0
   -5.9864   -1.0833    0.0000 C   0  0  0  0  0  0  0  0  0  0  0  0
   -5.4146   -2.4700    0.0000 C   0  0  0  0  0  0  0  0  0  0  0  0
   -4.8442   -0.1110    0.0000 C   0  0  0  0  0  0  0  0  0  0  0  0
   -3.9191   -2.3548    0.0000 C   0  0  0  0  0  0  0  0  0  0  0  0
   -2.1798   -0.3250    0.0000 C   0  0  0  0  0  0  0  0  0  0  0  0
   -1.9816    1.1619    0.0000 C   0  0  0  0  0  0  0  0  0  0  0  0
   -0.5949    1.7337    0.0000 C   0  0  0  0  0  0  0  0  0  0  0  0
   -3.1702    2.0769    0.0000 C   0  0  0  0  0  0  0  0  0  0  0  0
    0.3955   -0.6682    0.0000 C   0  0  0  0  0  0  0  0  0  0  0  0
   -0.3967    3.2205    0.0000 C   0  0  0  0  0  0  0  0  0  0  0  0
   -2.9720    3.5638    0.0000 C   0  0  0  0  0  0  0  0  0  0  0  0
   -1.5852    4.1356    0.0000 C   0  0  0  0  0  0  0  0  0  0  0  0
    2.9708   -1.0115    0.0000 C   0  0  0  0  0  0  0  0  0  0  0  0
    4.1594   -1.9266    0.0000 C   0  0  0  0  0  0  0  0  0  0  0  0
    3.1690    0.4753    0.0000 C   0  0  0  0  0  0  0  0  0  0  0  0
    5.5461   -1.3548    0.0000 C   0  0  0  0  0  0  0  0  0  0  0  0
    4.5557    1.0471    0.0000 C   0  0  0  0  0  0  0  0  0  0  0  0
    5.7443    0.1321    0.0000 C   0  0  0  0  0  0  0  0  0  0  0  0
    8.3196   -0.2112    0.0000 C   0  0  0  0  0  0  0  0  0  0  0  0
   -5.1436   -3.9454    0.0000 H   0  0  0  0  0  0  0  0  0  0  0  0
   -6.8535   -2.8937    0.0000 H   0  0  0  0  0  0  0  0  0  0  0  0
   -7.3058   -1.7969    0.0000 H   0  0  0  0  0  0  0  0  0  0  0  0
   -6.8340    0.1543    0.0000 H   0  0  0  0  0  0  0  0  0  0  0  0
   -2.4322   -2.5529    0.0000 H   0  0  0  0  0  0  0  0  0  0  0  0
   -3.9607   -3.8542    0.0000 H   0  0  0  0  0  0  0  0  0  0  0  0
   -5.9306    0.9233    0.0000 H   0  0  0  0  0  0  0  0  0  0  0  0
   -4.2877    0.8304    0.0000 H   0  0  0  0  0  0  0  0  0  0  0  0
   -4.2244    1.7864    0.0000 H   0  0  0  0  0  0  0  0  0  0  0  0
    0.9901    3.7923    0.0000 H   0  0  0  0  0  0  0  0  0  0  0  0
   -4.1605    4.4788    0.0000 H   0  0  0  0  0  0  0  0  0  0  0  0
    1.3859   -3.0702    0.0000 H   0  0  0  0  0  0  0  0  0  0  0  0
   -1.3870    5.6224    0.0000 H   0  0  0  0  0  0  0  0  0  0  0  0
    3.9612   -3.4134    0.0000 H   0  0  0  0  0  0  0  0  0  0  0  0
    1.9804    1.3904    0.0000 H   0  0  0  0  0  0  0  0  0  0  0  0
    6.7347   -2.2698    0.0000 H   0  0  0  0  0  0  0  0  0  0  0  0
    4.7539    2.5340    0.0000 H   0  0  0  0  0  0  0  0  0  0  0  0
    9.2347    0.9774    0.0000 H   0  0  0  0  0  0  0  0  0  0  0  0
    7.4045   -1.3998    0.0000 H   0  0  0  0  0  0  0  0  0  0  0  0
    9.5081   -1.1263    0.0000 H   0  0  0  0  0  0  0  0  0  0  0  0
  1 23  1  0
  1 24  1  0
  2  8  1  0
  2  9  1  0
  2 10  1  0
  3 10  2  0
  3 14  1  0
  4 12  1  0
  4 14  2  0
  5 14  1  0
  5 18  1  0
  5 36  1  0
  6  7  1  0
  6  8  1  0
  6 27  1  0
  6 28  1  0
  7  9  1  0
  7 25  1  0
  7 26  1  0
  8 31  1  0
  8 32  1  0
  9 29  1  0
  9 30  1  0
 10 11  1  0
 11 12  2  0
 11 13  1  0
 12 15  1  0
 13 16  2  0
 13 33  1  0
 15 17  2  0
 15 34  1  0
 16 17  1  0
 16 35  1  0
 17 37  1  0
 18 19  2  0
 18 20  1  0
 19 21  1  0
 19 38  1  0
 20 22  2  0
 20 39  1  0
 21 23  2  0
 21 40  1  0
 22 23  1  0
 22 41  1  0
 24 42  1  0
 24 43  1  0
 24 44  1  0
M  STY  8   1 DAT   2 DAT   3 DAT   4 DAT   5 DAT   6 DAT   7 DAT   8 DAT
M  STY  8   9 DAT  10 DAT  11 DAT  12 DAT  13 DAT  14 DAT  15 DAT  16 DAT
M  STY  8  17 DAT  18 DAT  19 DAT  20 DAT  21 DAT  22 DAT  23 DAT  24 DAT
M  STY  8  25 DAT  26 DAT  27 DAT  28 DAT  29 DAT  30 DAT  31 DAT  32 DAT
M  STY  8  33 DAT  34 DAT  35 DAT  36 DAT  37 DAT  38 DAT  39 DAT  40 DAT
M  STY  4  41 DAT  42 DAT  43 DAT  44 DAT
M  SAL   1  1   1
M  SED   1 [#8&h0]
M  SAL   2  1   2
M  SED   2 [#7&h0]
M  SAL   3  1   3
M  SED   3 [#7&h0]
M  SAL   4  1   4
M  SED   4 [#7&h0]
M  SAL   5  1   5
M  SED   5 [#7&h0]
M  SAL   6  1   6
M  SED   6 [#6&h0]
M  SAL   7  1   7
M  SED   7 [#6&h0]
M  SAL   8  1   8
M  SED   8 [#6&h0]
M  SAL   9  1   9
M  SED   9 [#6&h0]
M  SAL  10  1  10
M  SED  10 [#6&h0]
M  SAL  11  1  11
M  SED  11 [#6&h0]
M  SAL  12  1  12
M  SED  12 [#6&h0]
M  SAL  13  1  13
M  SED  13 [#6&h0]
M  SAL  14  1  14
M  SED  14 [#6&h0]
M  SAL  15  1  15
M  SED  15 [#6&h0]
M  SAL  16  1  16
M  SED  16 [#6&h0]
M  SAL  17  1  17
M  SED  17 [#6&h0]
M  SAL  18  1  18
M  SED  18 [#6&h0]
M  SAL  19  1  19
M  SED  19 [#6&h0]
M  SAL  20  1  20
M  SED  20 [#6&h0]
M  SAL  21  1  21
M  SED  21 [#6&h0]
M  SAL  22  1  22
M  SED  22 [#6&h0]
M  SAL  23  1  23
M  SED  23 [#6&h0]
M  SAL  24  1  24
M  SED  24 [#6&h0]
M  SAL  25  1  25
M  SED  25 [#1&h0]
M  SAL  26  1  26
M  SED  26 [#1&h0]
M  SAL  27  1  27
M  SED  27 [#1&h0]
M  SAL  28  1  28
M  SED  28 [#1&h0]
M  SAL  29  1  29
M  SED  29 [#1&h0]
M  SAL  30  1  30
M  SED  30 [#1&h0]
M  SAL  31  1  31
M  SED  31 [#1&h0]
M  SAL  32  1  32
M  SED  32 [#1&h0]
M  SAL  33  1  33
M  SED  33 [#1&h0]
M  SAL  34  1  34
M  SED  34 [#1&h0]
M  SAL  35  1  35
M  SED  35 [#1&h0]
M  SAL  36  1  36
M  SED  36 [#1&h0]
M  SAL  37  1  37
M  SED  37 [#1&h0]
M  SAL  38  1  38
M  SED  38 [#1&h0]
M  SAL  39  1  39
M  SED  39 [#1&h0]
M  SAL  40  1  40
M  SED  40 [#1&h0]
M  SAL  41  1  41
M  SED  41 [#1&h0]
M  SAL  42  1  42
M  SED  42 [#1&h0]
M  SAL  43  1  43
M  SED  43 [#1&h0]
M  SAL  44  1  44
M  SED  44 [#1&h0]
M  END
>  <Activity>  (22) 
0.01

>  <Mapped(file=2032.csv.activities,property=Cached(PUBCHEM_COMPOUND_CID))>  (22) 
100

>  <MatchIndices>  (22) 
67 

>  <PUBCHEM_ATOM_DEF_STEREO_COUNT>  (22) 
0

>  <PUBCHEM_ATOM_UDEF_STEREO_COUNT>  (22) 
0

>  <PUBCHEM_BONDANNOTATIONS>  (22) 
11  12  8
12  13  8
12  14  8
13  16  8
14  17  8
16  18  8
17  18  8
19  20  8
19  21  8
20  22  8
21  23  8
22  24  8
23  24  8
4  11  8
4  15  8
5  13  8
5  15  8

>  <PUBCHEM_BOND_DEF_STEREO_COUNT>  (22) 
0

>  <PUBCHEM_BOND_UDEF_STEREO_COUNT>  (22) 
0

>  <PUBCHEM_CACTVS_COMPLEXITY>  (22) 
393

>  <PUBCHEM_CACTVS_HBOND_ACCEPTOR>  (22) 
1

>  <PUBCHEM_CACTVS_HBOND_DONOR>  (22) 
2

>  <PUBCHEM_CACTVS_ROTATABLE_BOND>  (22) 
4

>  <PUBCHEM_CACTVS_SUBSKEYS>  (22) 
AAADceB7oAAEAAAAAAAAAAAAAAAAAWAAAAA8YIAAAAAAAACx9AAAHgAQAAAADAzBngYz9vfIFACgAyZiZACCiCkhIqAJmCA+bJiMLqLE+duENChs0BPI6CewwAAOAEAAAAACAAAAgAAAAAQAAAAAAAAAAA==

>  <PUBCHEM_CACTVS_TAUTO_COUNT>  (22) 
4

>  <PUBCHEM_CACTVS_TPSA>  (22) 
50.3

>  <PUBCHEM_COMPONENT_COUNT>  (22) 
2

>  <PUBCHEM_COMPOUND_CANONICALIZED>  (22) 
1

>  <PUBCHEM_COMPOUND_CID>  (22) 
6602960

>  <PUBCHEM_COORDINATE_TYPE>  (22) 
1
5
255

>  <PUBCHEM_EXACT_MASS>  (22) 
356.140389

>  <PUBCHEM_HEAVY_ATOM_COUNT>  (22) 
25

>  <PUBCHEM_ISOTOPIC_ATOM_COUNT>  (22) 
0

>  <PUBCHEM_IUPAC_CAS_NAME>  (22) 
N-(4-methoxyphenyl)-4-(1-pyrrolidinyl)-2-quinazolinamine hydrochloride

>  <PUBCHEM_IUPAC_INCHI>  (22) 
InChI=1S/C19H20N4O.ClH/c1-24-15-10-8-14(9-11-15)20-19-21-17-7-3-2-6-16(17)18(22-19)23-12-4-5-13-23;/h2-3,6-11H,4-5,12-13H2,1H3,(H,20,21,22);1H

>  <PUBCHEM_IUPAC_INCHIKEY>  (22) 
SQNXCAUHFCLHTK-UHFFFAOYSA-N

>  <PUBCHEM_IUPAC_NAME>  (22) 
N-(4-methoxyphenyl)-4-pyrrolidin-1-ylquinazolin-2-amine hydrochloride

>  <PUBCHEM_IUPAC_OPENEYE_NAME>  (22) 
N-(4-methoxyphenyl)-4-pyrrolidin-1-yl-quinazolin-2-amine hydrochloride

>  <PUBCHEM_IUPAC_SYSTEMATIC_NAME>  (22) 
N-(4-methoxyphenyl)-4-pyrrolidin-1-yl-quinazolin-2-amine hydrochloride

>  <PUBCHEM_IUPAC_TRADITIONAL_NAME>  (22) 
(4-methoxyphenyl)-(4-pyrrolidinoquinazolin-2-yl)amine hydrochloride

>  <PUBCHEM_MOLECULAR_FORMULA>  (22) 
C19H21ClN4O

>  <PUBCHEM_MOLECULAR_WEIGHT>  (22) 
356.84924

>  <PUBCHEM_MONOISOTOPIC_WEIGHT>  (22) 
356.140389

>  <PUBCHEM_OPENEYE_CAN_SMILES>  (22) 
COC1=CC=C(C=C1)NC2=NC3=CC=CC=C3C(=N2)N4CCCC4.Cl

>  <PUBCHEM_OPENEYE_ISO_SMILES>  (22) 
COC1=CC=C(C=C1)NC2=NC3=CC=CC=C3C(=N2)N4CCCC4.Cl

>  <PUBCHEM_TOTAL_CHARGE>  (22) 
0

$$$$
Largest isolated from Written by BCL::WriteToMDL,2984278
     RDKit          2D

 38 39  0 38  0  0  0  0  0  0999 V2000
    6.5594    0.8266    0.0000 S   0  0  0  0  0  0  0  0  0  0  0  0
   -3.7953    2.5674    0.0000 O   0  0  0  0  0  0  0  0  0  0  0  0
   -0.7700   -0.7639    0.0000 N   0  0  0  0  0  0  0  0  0  0  0  0
   -2.7869    1.4570    0.0000 C   0  0  0  0  0  0  0  0  0  0  0  0
   -1.7785    0.3465    0.0000 C   0  0  0  0  0  0  0  0  0  0  0  0
    0.6958   -0.4458    0.0000 C   0  0  0  0  0  0  0  0  0  0  0  0
   -3.8973    0.4485    0.0000 C   0  0  0  0  0  0  0  0  0  0  0  0
    2.1617   -0.1277    0.0000 C   0  0  0  0  0  0  0  0  0  0  0  0
   -5.3259    0.9060    0.0000 C   0  0  0  0  0  0  0  0  0  0  0  0
   -3.5792   -1.0174    0.0000 C   0  0  0  0  0  0  0  0  0  0  0  0
    3.1702   -1.2381    0.0000 C   0  0  0  0  0  0  0  0  0  0  0  0
    2.6192    1.3008    0.0000 C   0  0  0  0  0  0  0  0  0  0  0  0
   -6.4363   -0.1025    0.0000 C   0  0  0  0  0  0  0  0  0  0  0  0
   -4.6897   -2.0258    0.0000 C   0  0  0  0  0  0  0  0  0  0  0  0
    4.6360   -0.9200    0.0000 C   0  0  0  0  0  0  0  0  0  0  0  0
    4.0851    1.6190    0.0000 C   0  0  0  0  0  0  0  0  0  0  0  0
    5.0935    0.5085    0.0000 C   0  0  0  0  0  0  0  0  0  0  0  0
   -6.1182   -1.5683    0.0000 C   0  0  0  0  0  0  0  0  0  0  0  0
    7.5678   -0.2838    0.0000 C   0  0  0  0  0  0  0  0  0  0  0  0
   -1.6765    2.4654    0.0000 H   0  0  0  0  0  0  0  0  0  0  0  0
   -0.6680    1.3550    0.0000 H   0  0  0  0  0  0  0  0  0  0  0  0
   -2.2706   -0.3899    0.0000 H   0  0  0  0  0  0  0  0  0  0  0  0
    1.0140   -1.9117    0.0000 H   0  0  0  0  0  0  0  0  0  0  0  0
    0.3777    1.0201    0.0000 H   0  0  0  0  0  0  0  0  0  0  0  0
   -1.2275   -2.1925    0.0000 H   0  0  0  0  0  0  0  0  0  0  0  0
   -5.6440    2.3719    0.0000 H   0  0  0  0  0  0  0  0  0  0  0  0
   -2.7357   -1.2875    0.0000 H   0  0  0  0  0  0  0  0  0  0  0  0
    2.7127   -2.6667    0.0000 H   0  0  0  0  0  0  0  0  0  0  0  0
    1.6107    2.4113    0.0000 H   0  0  0  0  0  0  0  0  0  0  0  0
   -3.3379    3.9959    0.0000 H   0  0  0  0  0  0  0  0  0  0  0  0
   -7.8649    0.3550    0.0000 H   0  0  0  0  0  0  0  0  0  0  0  0
   -4.3716   -3.4917    0.0000 H   0  0  0  0  0  0  0  0  0  0  0  0
    5.6445   -2.0305    0.0000 H   0  0  0  0  0  0  0  0  0  0  0  0
    4.5425    3.0475    0.0000 H   0  0  0  0  0  0  0  0  0  0  0  0
   -7.2286   -2.5768    0.0000 H   0  0  0  0  0  0  0  0  0  0  0  0
    8.6782    0.7246    0.0000 H   0  0  0  0  0  0  0  0  0  0  0  0
    6.4574   -1.2922    0.0000 H   0  0  0  0  0  0  0  0  0  0  0  0
    8.5762   -1.3942    0.0000 H   0  0  0  0  0  0  0  0  0  0  0  0
  1 17  1  0
  1 19  1  0
  2  4  1  0
  2 30  1  0
  3  5  1  0
  3  6  1  0
  3 25  1  0
  4  5  1  0
  4  7  1  0
  4 20  1  6
  5 21  1  0
  5 22  1  0
  6  8  1  0
  6 23  1  0
  6 24  1  0
  7  9  2  0
  7 10  1  0
  8 11  2  0
  8 12  1  0
  9 13  1  0
  9 26  1  0
 10 14  2  0
 10 27  1  0
 11 15  1  0
 11 28  1  0
 12 16  2  0
 12 29  1  0
 13 18  2  0
 13 31  1  0
 14 18  1  0
 14 32  1  0
 15 17  2  0
 15 33  1  0
 16 17  1  0
 16 34  1  0
 18 35  1  0
 19 36  1  0
 19 37  1  0
 19 38  1  0
M  STY  8   1 DAT   2 DAT   3 DAT   4 DAT   5 DAT   6 DAT   7 DAT   8 DAT
M  STY  8   9 DAT  10 DAT  11 DAT  12 DAT  13 DAT  14 DAT  15 DAT  16 DAT
M  STY  8  17 DAT  18 DAT  19 DAT  20 DAT  21 DAT  22 DAT  23 DAT  24 DAT
M  STY  8  25 DAT  26 DAT  27 DAT  28 DAT  29 DAT  30 DAT  31 DAT  32 DAT
M  STY  6  33 DAT  34 DAT  35 DAT  36 DAT  37 DAT  38 DAT
M  SAL   1  1   1
M  SED   1 [#16&h0]
M  SAL   2  1   2
M  SED   2 [#8&h0]
M  SAL   3  1   3
M  SED   3 [#7&h0]
M  SAL   4  1   4
M  SED   4 [#6&h0]
M  SAL   5  1   5
M  SED   5 [#6&h0]
M  SAL   6  1   6
M  SED   6 [#6&h0]
M  SAL   7  1   7
M  SED   7 [#6&h0]
M  SAL   8  1   8
M  SED   8 [#6&h0]
M  SAL   9  1   9
M  SED   9 [#6&h0]
M  SAL  10  1  10
M  SED  10 [#6&h0]
M  SAL  11  1  11
M  SED  11 [#6&h0]
M  SAL  12  1  12
M  SED  12 [#6&h0]
M  SAL  13  1  13
M  SED  13 [#6&h0]
M  SAL  14  1  14
M  SED  14 [#6&h0]
M  SAL  15  1  15
M  SED  15 [#6&h0]
M  SAL  16  1  16
M  SED  16 [#6&h0]
M  SAL  17  1  17
M  SED  17 [#6&h0]
M  SAL  18  1  18
M  SED  18 [#6&h0]
M  SAL  19  1  19
M  SED  19 [#6&h0]
M  SAL  20  1  20
M  SED  20 [#1&h0]
M  SAL  21  1  21
M  SED  21 [#1&h0]
M  SAL  22  1  22
M  SED  22 [#1&h0]
M  SAL  23  1  23
M  SED  23 [#1&h0]
M  SAL  24  1  24
M  SED  24 [#1&h0]
M  SAL  25  1  25
M  SED  25 [#1&h0]
M  SAL  26  1  26
M  SED  26 [#1&h0]
M  SAL  27  1  27
M  SED  27 [#1&h0]
M  SAL  28  1  28
M  SED  28 [#1&h0]
M  SAL  29  1  29
M  SED  29 [#1&h0]
M  SAL  30  1  30
M  SED  30 [#1&h0]
M  SAL  31  1  31
M  SED  31 [#1&h0]
M  SAL  32  1  32
M  SED  32 [#1&h0]
M  SAL  33  1  33
M  SED  33 [#1&h0]
M  SAL  34  1  34
M  SED  34 [#1&h0]
M  SAL  35  1  35
M  SED  35 [#1&h0]
M  SAL  36  1  36
M  SED  36 [#1&h0]
M  SAL  37  1  37
M  SED  37 [#1&h0]
M  SAL  38  1  38
M  SED  38 [#1&h0]
M  END
>  <Activity>  (23) 
0.01

>  <Mapped(file=2032.csv.activities,property=Cached(PUBCHEM_COMPOUND_CID))>  (23) 
100

>  <MatchIndices>  (23) 
48 

>  <PUBCHEM_ATOM_DEF_STEREO_COUNT>  (23) 
0

>  <PUBCHEM_ATOM_UDEF_STEREO_COUNT>  (23) 
1

>  <PUBCHEM_BONDANNOTATIONS>  (23) 
10  14  8
11  15  8
12  16  8
13  17  8
14  19  8
15  19  8
16  18  8
17  18  8
5  21  3
8  10  8
8  11  8
9  12  8
9  13  8

>  <PUBCHEM_BOND_DEF_STEREO_COUNT>  (23) 
0

>  <PUBCHEM_BOND_UDEF_STEREO_COUNT>  (23) 
0

>  <PUBCHEM_CACTVS_COMPLEXITY>  (23) 
235

>  <PUBCHEM_CACTVS_HBOND_ACCEPTOR>  (23) 
3

>  <PUBCHEM_CACTVS_HBOND_DONOR>  (23) 
3

>  <PUBCHEM_CACTVS_ROTATABLE_BOND>  (23) 
6

>  <PUBCHEM_CACTVS_SUBSKEYS>  (23) 
AAADceB6IABEAAAAAAAAAAAAAAAAAAAAAAAwYAAAAAAAAAABQAAAHgQQCAAADBTh2AayAYLAAgiAAiBCAACCAAAgCBAIiJgIDIgKNiKgkRGEcAhk0AGYmAeQwKAOEAAAAAAAAAAgAAAAAAAAAAAAAAAAAA==

>  <PUBCHEM_CACTVS_TAUTO_COUNT>  (23) 
1

>  <PUBCHEM_CACTVS_TPSA>  (23) 
57.6

>  <PUBCHEM_COMPONENT_COUNT>  (23) 
2

>  <PUBCHEM_COMPOUND_CANONICALIZED>  (23) 
1

>  <PUBCHEM_COMPOUND_CID>  (23) 
2984278

>  <PUBCHEM_COORDINATE_TYPE>  (23) 
1
5
255

>  <PUBCHEM_EXACT_MASS>  (23) 
309.095413

>  <PUBCHEM_HEAVY_ATOM_COUNT>  (23) 
20

>  <PUBCHEM_ISOTOPIC_ATOM_COUNT>  (23) 
0

>  <PUBCHEM_IUPAC_CAS_NAME>  (23) 
2-[[4-(methylthio)phenyl]methylamino]-1-phenylethanol hydrochloride

>  <PUBCHEM_IUPAC_INCHI>  (23) 
InChI=1S/C16H19NOS.ClH/c1-19-15-9-7-13(8-10-15)11-17-12-16(18)14-5-3-2-4-6-14;/h2-10,16-18H,11-12H2,1H3;1H

>  <PUBCHEM_IUPAC_INCHIKEY>  (23) 
LIANISOVSMTUFG-UHFFFAOYSA-N

>  <PUBCHEM_IUPAC_NAME>  (23) 
2-[(4-methylsulfanylphenyl)methylamino]-1-phenylethanol hydrochloride

>  <PUBCHEM_IUPAC_OPENEYE_NAME>  (23) 
2-[(4-methylsulfanylphenyl)methylamino]-1-phenyl-ethanol hydrochloride

>  <PUBCHEM_IUPAC_SYSTEMATIC_NAME>  (23) 
2-[(4-methylsulfanylphenyl)methylamino]-1-phenyl-ethanol hydrochloride

>  <PUBCHEM_IUPAC_TRADITIONAL_NAME>  (23) 
2-[[4-(methylthio)benzyl]amino]-1-phenyl-ethanol hydrochloride

>  <PUBCHEM_MOLECULAR_FORMULA>  (23) 
C16H20ClNOS

>  <PUBCHEM_MOLECULAR_WEIGHT>  (23) 
309.8541

>  <PUBCHEM_MONOISOTOPIC_WEIGHT>  (23) 
309.095413

>  <PUBCHEM_OPENEYE_CAN_SMILES>  (23) 
CSC1=CC=C(C=C1)CNCC(C2=CC=CC=C2)O.Cl

>  <PUBCHEM_OPENEYE_ISO_SMILES>  (23) 
CSC1=CC=C(C=C1)CNCC(C2=CC=CC=C2)O.Cl

>  <PUBCHEM_TOTAL_CHARGE>  (23) 
0

$$$$
Largest isolated from Written by BCL::WriteToMDL,4009407
     RDKit          2D

 47 48  0 47  0  0  0  0  0  0999 V2000
    0.6286    1.1563    0.0000 O   0  0  0  0  0  0  0  0  0  0  0  0
    0.0750   -0.8578    0.0000 N   0  0  0  0  0  0  0  0  0  0  0  0
   -1.4141   -0.6772    0.0000 C   0  0  0  0  0  0  0  0  0  0  0  0
   -2.9032   -0.4966    0.0000 C   0  0  0  0  0  0  0  0  0  0  0  0
    3.9541   -0.0197    0.0000 C   0  0  0  0  0  0  0  0  0  0  0  0
    2.4650    0.1609    0.0000 C   0  0  0  0  0  0  0  0  0  0  0  0
   -4.3923   -0.3160    0.0000 C   0  0  0  0  0  0  0  0  0  0  0  0
    0.9759    0.3415    0.0000 C   0  0  0  0  0  0  0  0  0  0  0  0
   -1.2335    0.8119    0.0000 C   0  0  0  0  0  0  0  0  0  0  0  0
    5.4432   -0.2003    0.0000 C   0  0  0  0  0  0  0  0  0  0  0  0
    4.1347    1.4694    0.0000 C   0  0  0  0  0  0  0  0  0  0  0  0
   -5.8814   -0.1354    0.0000 C   0  0  0  0  0  0  0  0  0  0  0  0
    6.3441    0.9990    0.0000 C   0  0  0  0  0  0  0  0  0  0  0  0
    6.0313   -1.5802    0.0000 C   0  0  0  0  0  0  0  0  0  0  0  0
   -6.4695    1.2445    0.0000 C   0  0  0  0  0  0  0  0  0  0  0  0
   -6.7823   -1.3347    0.0000 C   0  0  0  0  0  0  0  0  0  0  0  0
    7.8332    0.8184    0.0000 C   0  0  0  0  0  0  0  0  0  0  0  0
    7.5204   -1.7608    0.0000 C   0  0  0  0  0  0  0  0  0  0  0  0
    8.4214   -0.5615    0.0000 C   0  0  0  0  0  0  0  0  0  0  0  0
   -7.9586    1.4251    0.0000 C   0  0  0  0  0  0  0  0  0  0  0  0
   -8.2714   -1.1541    0.0000 C   0  0  0  0  0  0  0  0  0  0  0  0
   -8.8596    0.2258    0.0000 C   0  0  0  0  0  0  0  0  0  0  0  0
   -1.5947   -2.1663    0.0000 H   0  0  0  0  0  0  0  0  0  0  0  0
   -3.0838   -1.9857    0.0000 H   0  0  0  0  0  0  0  0  0  0  0  0
   -2.9045    0.3891    0.0000 H   0  0  0  0  0  0  0  0  0  0  0  0
    3.7735   -1.5088    0.0000 H   0  0  0  0  0  0  0  0  0  0  0  0
    2.2844   -1.3282    0.0000 H   0  0  0  0  0  0  0  0  0  0  0  0
    2.4637    1.0466    0.0000 H   0  0  0  0  0  0  0  0  0  0  0  0
   -4.5729   -1.8051    0.0000 H   0  0  0  0  0  0  0  0  0  0  0  0
   -4.2117    1.1731    0.0000 H   0  0  0  0  0  0  0  0  0  0  0  0
    0.6631   -2.2377    0.0000 H   0  0  0  0  0  0  0  0  0  0  0  0
   -2.0933    1.0249    0.0000 H   0  0  0  0  0  0  0  0  0  0  0  0
   -0.3546    0.9212    0.0000 H   0  0  0  0  0  0  0  0  0  0  0  0
   -1.0529    2.3010    0.0000 H   0  0  0  0  0  0  0  0  0  0  0  0
    3.2750    1.6824    0.0000 H   0  0  0  0  0  0  0  0  0  0  0  0
    5.6232    1.6545    0.0000 H   0  0  0  0  0  0  0  0  0  0  0  0
    4.3153    2.9585    0.0000 H   0  0  0  0  0  0  0  0  0  0  0  0
    5.7560    2.3789    0.0000 H   0  0  0  0  0  0  0  0  0  0  0  0
    5.1304   -2.7795    0.0000 H   0  0  0  0  0  0  0  0  0  0  0  0
   -5.5686    2.4438    0.0000 H   0  0  0  0  0  0  0  0  0  0  0  0
   -6.1942   -2.7146    0.0000 H   0  0  0  0  0  0  0  0  0  0  0  0
    8.7342    2.0177    0.0000 H   0  0  0  0  0  0  0  0  0  0  0  0
    8.1086   -3.1406    0.0000 H   0  0  0  0  0  0  0  0  0  0  0  0
    9.9105   -0.7421    0.0000 H   0  0  0  0  0  0  0  0  0  0  0  0
   -8.5468    2.8050    0.0000 H   0  0  0  0  0  0  0  0  0  0  0  0
   -9.1724   -2.3534    0.0000 H   0  0  0  0  0  0  0  0  0  0  0  0
  -10.3486    0.4064    0.0000 H   0  0  0  0  0  0  0  0  0  0  0  0
  1  8  2  0
  2  3  1  0
  2  8  1  0
  2 31  1  0
  3  4  1  0
  3  9  1  0
  3 23  1  6
  4  7  1  0
  4 24  1  0
  4 25  1  0
  5  6  1  0
  5 10  1  0
  5 11  1  0
  5 26  1  1
  6  8  1  0
  6 27  1  0
  6 28  1  0
  7 12  1  0
  7 29  1  0
  7 30  1  0
  9 32  1  0
  9 33  1  0
  9 34  1  0
 10 13  2  0
 10 14  1  0
 11 35  1  0
 11 36  1  0
 11 37  1  0
 12 15  2  0
 12 16  1  0
 13 17  1  0
 13 38  1  0
 14 18  2  0
 14 39  1  0
 15 20  1  0
 15 40  1  0
 16 21  2  0
 16 41  1  0
 17 19  2  0
 17 42  1  0
 18 19  1  0
 18 43  1  0
 19 44  1  0
 20 22  2  0
 20 45  1  0
 21 22  1  0
 21 46  1  0
 22 47  1  0
M  STY  8   1 DAT   2 DAT   3 DAT   4 DAT   5 DAT   6 DAT   7 DAT   8 DAT
M  STY  8   9 DAT  10 DAT  11 DAT  12 DAT  13 DAT  14 DAT  15 DAT  16 DAT
M  STY  8  17 DAT  18 DAT  19 DAT  20 DAT  21 DAT  22 DAT  23 DAT  24 DAT
M  STY  8  25 DAT  26 DAT  27 DAT  28 DAT  29 DAT  30 DAT  31 DAT  32 DAT
M  STY  8  33 DAT  34 DAT  35 DAT  36 DAT  37 DAT  38 DAT  39 DAT  40 DAT
M  STY  7  41 DAT  42 DAT  43 DAT  44 DAT  45 DAT  46 DAT  47 DAT
M  SAL   1  1   1
M  SED   1 [#8&h0]
M  SAL   2  1   2
M  SED   2 [#7&h0]
M  SAL   3  1   3
M  SED   3 [#6&h0]
M  SAL   4  1   4
M  SED   4 [#6&h0]
M  SAL   5  1   5
M  SED   5 [#6&h0]
M  SAL   6  1   6
M  SED   6 [#6&h0]
M  SAL   7  1   7
M  SED   7 [#6&h0]
M  SAL   8  1   8
M  SED   8 [#6&h0]
M  SAL   9  1   9
M  SED   9 [#6&h0]
M  SAL  10  1  10
M  SED  10 [#6&h0]
M  SAL  11  1  11
M  SED  11 [#6&h0]
M  SAL  12  1  12
M  SED  12 [#6&h0]
M  SAL  13  1  13
M  SED  13 [#6&h0]
M  SAL  14  1  14
M  SED  14 [#6&h0]
M  SAL  15  1  15
M  SED  15 [#6&h0]
M  SAL  16  1  16
M  SED  16 [#6&h0]
M  SAL  17  1  17
M  SED  17 [#6&h0]
M  SAL  18  1  18
M  SED  18 [#6&h0]
M  SAL  19  1  19
M  SED  19 [#6&h0]
M  SAL  20  1  20
M  SED  20 [#6&h0]
M  SAL  21  1  21
M  SED  21 [#6&h0]
M  SAL  22  1  22
M  SED  22 [#6&h0]
M  SAL  23  1  23
M  SED  23 [#1&h0]
M  SAL  24  1  24
M  SED  24 [#1&h0]
M  SAL  25  1  25
M  SED  25 [#1&h0]
M  SAL  26  1  26
M  SED  26 [#1&h0]
M  SAL  27  1  27
M  SED  27 [#1&h0]
M  SAL  28  1  28
M  SED  28 [#1&h0]
M  SAL  29  1  29
M  SED  29 [#1&h0]
M  SAL  30  1  30
M  SED  30 [#1&h0]
M  SAL  31  1  31
M  SED  31 [#1&h0]
M  SAL  32  1  32
M  SED  32 [#1&h0]
M  SAL  33  1  33
M  SED  33 [#1&h0]
M  SAL  34  1  34
M  SED  34 [#1&h0]
M  SAL  35  1  35
M  SED  35 [#1&h0]
M  SAL  36  1  36
M  SED  36 [#1&h0]
M  SAL  37  1  37
M  SED  37 [#1&h0]
M  SAL  38  1  38
M  SED  38 [#1&h0]
M  SAL  39  1  39
M  SED  39 [#1&h0]
M  SAL  40  1  40
M  SED  40 [#1&h0]
M  SAL  41  1  41
M  SED  41 [#1&h0]
M  SAL  42  1  42
M  SED  42 [#1&h0]
M  SAL  43  1  43
M  SED  43 [#1&h0]
M  SAL  44  1  44
M  SED  44 [#1&h0]
M  SAL  45  1  45
M  SED  45 [#1&h0]
M  SAL  46  1  46
M  SED  46 [#1&h0]
M  SAL  47  1  47
M  SED  47 [#1&h0]
M  END
>  <Activity>  (24) 
0.01

>  <Mapped(file=2032.csv.activities,property=Cached(PUBCHEM_COMPOUND_CID))>  (24) 
100

>  <MatchIndices>  (24) 
92 

>  <PUBCHEM_ATOM_DEF_STEREO_COUNT>  (24) 
0

>  <PUBCHEM_ATOM_UDEF_STEREO_COUNT>  (24) 
2

>  <PUBCHEM_BONDANNOTATIONS>  (24) 
10  13  8
10  14  8
12  15  8
12  16  8
13  17  8
14  18  8
15  20  8
16  21  8
17  19  8
18  19  8
20  22  8
21  22  8
3  23  3
5  26  3

>  <PUBCHEM_BOND_DEF_STEREO_COUNT>  (24) 
0

>  <PUBCHEM_BOND_UDEF_STEREO_COUNT>  (24) 
0

>  <PUBCHEM_CACTVS_COMPLEXITY>  (24) 
316

>  <PUBCHEM_CACTVS_HBOND_ACCEPTOR>  (24) 
1

>  <PUBCHEM_CACTVS_HBOND_DONOR>  (24) 
1

>  <PUBCHEM_CACTVS_ROTATABLE_BOND>  (24) 
7

>  <PUBCHEM_CACTVS_SUBSKEYS>  (24) 
AAADceB6IAAAAAAAAAAAAAAAAAAAAAAAAAAwYAAAAAAAAAABQAAAHgAQAAAADSjBmAQyAILAAACIAiFSEAACAAAgAAAIiIEIAIgIIDKAkRCEIAAglgCIiAcYiMCOgAAAAAAAAAAAAAAAAAAAAAAAAAAAAA==

>  <PUBCHEM_CACTVS_TAUTO_COUNT>  (24) 
2

>  <PUBCHEM_CACTVS_TPSA>  (24) 
29.1

>  <PUBCHEM_COMPONENT_COUNT>  (24) 
1

>  <PUBCHEM_COMPOUND_CANONICALIZED>  (24) 
1

>  <PUBCHEM_COMPOUND_CID>  (24) 
4009407

>  <PUBCHEM_COORDINATE_TYPE>  (24) 
1
5
255

>  <PUBCHEM_EXACT_MASS>  (24) 
295.193614

>  <PUBCHEM_HEAVY_ATOM_COUNT>  (24) 
22

>  <PUBCHEM_ISOTOPIC_ATOM_COUNT>  (24) 
0

>  <PUBCHEM_IUPAC_CAS_NAME>  (24) 
3-phenyl-N-(4-phenylbutan-2-yl)butanamide

>  <PUBCHEM_IUPAC_INCHI>  (24) 
InChI=1S/C20H25NO/c1-16(19-11-7-4-8-12-19)15-20(22)21-17(2)13-14-18-9-5-3-6-10-18/h3-12,16-17H,13-15H2,1-2H3,(H,21,22)

>  <PUBCHEM_IUPAC_INCHIKEY>  (24) 
DBZJGQXPYGNZGH-UHFFFAOYSA-N

>  <PUBCHEM_IUPAC_NAME>  (24) 
3-phenyl-N-(4-phenylbutan-2-yl)butanamide

>  <PUBCHEM_IUPAC_OPENEYE_NAME>  (24) 
N-(1-methyl-3-phenyl-propyl)-3-phenyl-butanamide

>  <PUBCHEM_IUPAC_SYSTEMATIC_NAME>  (24) 
3-phenyl-N-(4-phenylbutan-2-yl)butanamide

>  <PUBCHEM_IUPAC_TRADITIONAL_NAME>  (24) 
N-(1-methyl-3-phenyl-propyl)-3-phenyl-butyramide

>  <PUBCHEM_MOLECULAR_FORMULA>  (24) 
C20H25NO

>  <PUBCHEM_MOLECULAR_WEIGHT>  (24) 
295.4186

>  <PUBCHEM_MONOISOTOPIC_WEIGHT>  (24) 
295.193614

>  <PUBCHEM_OPENEYE_CAN_SMILES>  (24) 
CC(CCC1=CC=CC=C1)NC(=O)CC(C)C2=CC=CC=C2

>  <PUBCHEM_OPENEYE_ISO_SMILES>  (24) 
CC(CCC1=CC=CC=C1)NC(=O)CC(C)C2=CC=CC=C2

>  <PUBCHEM_TOTAL_CHARGE>  (24) 
0

>  <PUBCHEM_XLOGP3_AA>  (24) 
4.5

$$$$
Largest isolated from Written by BCL::WriteToMDL,665176
     RDKit          2D

 43 45  0 43  0  0  0  0  0  0999 V2000
    2.2439    1.4707    0.0000 S   0  0  0  0  0  0  0  0  0  0  0  0
   -4.4435    0.7813    0.0000 O   0  0  0  0  0  0  0  0  0  0  0  0
   -0.4288    1.4316    0.0000 N   0  0  0  0  0  0  0  0  0  0  0  0
   -0.7733   -0.9709    0.0000 N   0  0  0  0  0  0  0  0  0  0  0  0
    0.7046   -0.7146    0.0000 N   0  0  0  0  0  0  0  0  0  0  0  0
    9.8629   -3.3199    0.0000 N   0  0  0  0  0  0  0  0  0  0  0  0
   -0.6852    2.9095    0.0000 C   0  0  0  0  0  0  0  0  0  0  0  0
   -1.4738    0.3555    0.0000 C   0  0  0  0  0  0  0  0  0  0  0  0
    0.9175    0.7702    0.0000 C   0  0  0  0  0  0  0  0  0  0  0  0
   -2.9587    0.5684    0.0000 C   0  0  0  0  0  0  0  0  0  0  0  0
   -0.9415    4.3874    0.0000 C   0  0  0  0  0  0  0  0  0  0  0  0
    3.5137    0.6723    0.0000 C   0  0  0  0  0  0  0  0  0  0  0  0
    4.7836   -0.1262    0.0000 C   0  0  0  0  0  0  0  0  0  0  0  0
    4.7270   -1.6251    0.0000 C   0  0  0  0  0  0  0  0  0  0  0  0
    6.1100    0.5743    0.0000 C   0  0  0  0  0  0  0  0  0  0  0  0
   -5.3703   -0.3981    0.0000 C   0  0  0  0  0  0  0  0  0  0  0  0
    5.9969   -2.4235    0.0000 C   0  0  0  0  0  0  0  0  0  0  0  0
    7.3798   -0.2241    0.0000 C   0  0  0  0  0  0  0  0  0  0  0  0
    7.3233   -1.7230    0.0000 C   0  0  0  0  0  0  0  0  0  0  0  0
   -4.8123   -1.7904    0.0000 C   0  0  0  0  0  0  0  0  0  0  0  0
   -6.8551   -0.1852    0.0000 C   0  0  0  0  0  0  0  0  0  0  0  0
   -5.7391   -2.9699    0.0000 C   0  0  0  0  0  0  0  0  0  0  0  0
   -7.7819   -1.3646    0.0000 C   0  0  0  0  0  0  0  0  0  0  0  0
   -7.2239   -2.7569    0.0000 C   0  0  0  0  0  0  0  0  0  0  0  0
    8.5931   -2.5215    0.0000 C   0  0  0  0  0  0  0  0  0  0  0  0
   -2.1833    2.8352    0.0000 H   0  0  0  0  0  0  0  0  0  0  0  0
    0.7928    3.1658    0.0000 H   0  0  0  0  0  0  0  0  0  0  0  0
   -3.1716   -0.9164    0.0000 H   0  0  0  0  0  0  0  0  0  0  0  0
   -2.9283    2.0681    0.0000 H   0  0  0  0  0  0  0  0  0  0  0  0
    0.5364    4.6438    0.0000 H   0  0  0  0  0  0  0  0  0  0  0  0
   -2.4194    4.1311    0.0000 H   0  0  0  0  0  0  0  0  0  0  0  0
   -1.1978    5.8654    0.0000 H   0  0  0  0  0  0  0  0  0  0  0  0
    2.7153   -0.5976    0.0000 H   0  0  0  0  0  0  0  0  0  0  0  0
    4.3122    1.9421    0.0000 H   0  0  0  0  0  0  0  0  0  0  0  0
    3.4006   -2.3256    0.0000 H   0  0  0  0  0  0  0  0  0  0  0  0
    6.1665    2.0733    0.0000 H   0  0  0  0  0  0  0  0  0  0  0  0
    5.9403   -3.9225    0.0000 H   0  0  0  0  0  0  0  0  0  0  0  0
    8.7062    0.4764    0.0000 H   0  0  0  0  0  0  0  0  0  0  0  0
   -3.3274   -2.0034    0.0000 H   0  0  0  0  0  0  0  0  0  0  0  0
   -7.4131    1.2072    0.0000 H   0  0  0  0  0  0  0  0  0  0  0  0
   -5.1810   -4.3622    0.0000 H   0  0  0  0  0  0  0  0  0  0  0  0
   -9.2667   -1.1517    0.0000 H   0  0  0  0  0  0  0  0  0  0  0  0
   -8.1507   -3.9364    0.0000 H   0  0  0  0  0  0  0  0  0  0  0  0
  1  9  1  0
  1 12  1  0
  2 10  1  0
  2 16  1  0
  3  7  1  0
  3  8  1  0
  3  9  1  0
  4  5  1  0
  4  8  2  0
  5  9  2  0
  6 25  3  0
  7 11  1  0
  7 26  1  0
  7 27  1  0
  8 10  1  0
 10 28  1  0
 10 29  1  0
 11 30  1  0
 11 31  1  0
 11 32  1  0
 12 13  1  0
 12 33  1  0
 12 34  1  0
 13 14  2  0
 13 15  1  0
 14 17  1  0
 14 35  1  0
 15 18  2  0
 15 36  1  0
 16 20  2  0
 16 21  1  0
 17 19  2  0
 17 37  1  0
 18 19  1  0
 18 38  1  0
 19 25  1  0
 20 22  1  0
 20 39  1  0
 21 23  2  0
 21 40  1  0
 22 24  2  0
 22 41  1  0
 23 24  1  0
 23 42  1  0
 24 43  1  0
M  STY  8   1 DAT   2 DAT   3 DAT   4 DAT   5 DAT   6 DAT   7 DAT   8 DAT
M  STY  8   9 DAT  10 DAT  11 DAT  12 DAT  13 DAT  14 DAT  15 DAT  16 DAT
M  STY  8  17 DAT  18 DAT  19 DAT  20 DAT  21 DAT  22 DAT  23 DAT  24 DAT
M  STY  8  25 DAT  26 DAT  27 DAT  28 DAT  29 DAT  30 DAT  31 DAT  32 DAT
M  STY  8  33 DAT  34 DAT  35 DAT  36 DAT  37 DAT  38 DAT  39 DAT  40 DAT
M  STY  3  41 DAT  42 DAT  43 DAT
M  SAL   1  1   1
M  SED   1 [#16&h0]
M  SAL   2  1   2
M  SED   2 [#8&h0]
M  SAL   3  1   3
M  SED   3 [#7&h0]
M  SAL   4  1   4
M  SED   4 [#7&h0]
M  SAL   5  1   5
M  SED   5 [#7&h0]
M  SAL   6  1   6
M  SED   6 [#7&h0]
M  SAL   7  1   7
M  SED   7 [#6&h0]
M  SAL   8  1   8
M  SED   8 [#6&h0]
M  SAL   9  1   9
M  SED   9 [#6&h0]
M  SAL  10  1  10
M  SED  10 [#6&h0]
M  SAL  11  1  11
M  SED  11 [#6&h0]
M  SAL  12  1  12
M  SED  12 [#6&h0]
M  SAL  13  1  13
M  SED  13 [#6&h0]
M  SAL  14  1  14
M  SED  14 [#6&h0]
M  SAL  15  1  15
M  SED  15 [#6&h0]
M  SAL  16  1  16
M  SED  16 [#6&h0]
M  SAL  17  1  17
M  SED  17 [#6&h0]
M  SAL  18  1  18
M  SED  18 [#6&h0]
M  SAL  19  1  19
M  SED  19 [#6&h0]
M  SAL  20  1  20
M  SED  20 [#6&h0]
M  SAL  21  1  21
M  SED  21 [#6&h0]
M  SAL  22  1  22
M  SED  22 [#6&h0]
M  SAL  23  1  23
M  SED  23 [#6&h0]
M  SAL  24  1  24
M  SED  24 [#6&h0]
M  SAL  25  1  25
M  SED  25 [#6&h0]
M  SAL  26  1  26
M  SED  26 [#1&h0]
M  SAL  27  1  27
M  SED  27 [#1&h0]
M  SAL  28  1  28
M  SED  28 [#1&h0]
M  SAL  29  1  29
M  SED  29 [#1&h0]
M  SAL  30  1  30
M  SED  30 [#1&h0]
M  SAL  31  1  31
M  SED  31 [#1&h0]
M  SAL  32  1  32
M  SED  32 [#1&h0]
M  SAL  33  1  33
M  SED  33 [#1&h0]
M  SAL  34  1  34
M  SED  34 [#1&h0]
M  SAL  35  1  35
M  SED  35 [#1&h0]
M  SAL  36  1  36
M  SED  36 [#1&h0]
M  SAL  37  1  37
M  SED  37 [#1&h0]
M  SAL  38  1  38
M  SED  38 [#1&h0]
M  SAL  39  1  39
M  SED  39 [#1&h0]
M  SAL  40  1  40
M  SED  40 [#1&h0]
M  SAL  41  1  41
M  SED  41 [#1&h0]
M  SAL  42  1  42
M  SED  42 [#1&h0]
M  SAL  43  1  43
M  SED  43 [#1&h0]
M  END
>  <Activity>  (25) 
0.01

>  <Mapped(file=2032.csv.activities,property=Cached(PUBCHEM_COMPOUND_CID))>  (25) 
100

>  <MatchIndices>  (25) 
138 

>  <PUBCHEM_ATOM_DEF_STEREO_COUNT>  (25) 
0

>  <PUBCHEM_ATOM_UDEF_STEREO_COUNT>  (25) 
0

>  <PUBCHEM_BONDANNOTATIONS>  (25) 
13  14  8
13  15  8
14  17  8
15  18  8
16  20  8
16  21  8
17  19  8
18  19  8
20  22  8
21  23  8
22  24  8
23  24  8
3  8  8
3  9  8
4  5  8
4  8  8
5  9  8

>  <PUBCHEM_BOND_DEF_STEREO_COUNT>  (25) 
0

>  <PUBCHEM_BOND_UDEF_STEREO_COUNT>  (25) 
0

>  <PUBCHEM_CACTVS_COMPLEXITY>  (25) 
440

>  <PUBCHEM_CACTVS_HBOND_ACCEPTOR>  (25) 
3

>  <PUBCHEM_CACTVS_HBOND_DONOR>  (25) 
0

>  <PUBCHEM_CACTVS_ROTATABLE_BOND>  (25) 
7

>  <PUBCHEM_CACTVS_SUBSKEYS>  (25) 
AAADceB7oABAAAAAAAAAAAAAAAAAAWAAAAAwYAAAAAAAAAAB0AAAHgQIAAAADATl2wazFocMFAiyBiJiJAQy2AtgILAdyAAeCIiOriKkORqDOCCkyBOYqA+AwAAOQAAAAAAAAACAAAAAAAAAAAAAAAAAAA==

>  <PUBCHEM_CACTVS_TAUTO_COUNT>  (25) 
1

>  <PUBCHEM_CACTVS_TPSA>  (25) 
89

>  <PUBCHEM_COMPONENT_COUNT>  (25) 
1

>  <PUBCHEM_COMPOUND_CANONICALIZED>  (25) 
1

>  <PUBCHEM_COMPOUND_CID>  (25) 
665176

>  <PUBCHEM_COORDINATE_TYPE>  (25) 
1
5
255

>  <PUBCHEM_EXACT_MASS>  (25) 
350.120132

>  <PUBCHEM_HEAVY_ATOM_COUNT>  (25) 
25

>  <PUBCHEM_ISOTOPIC_ATOM_COUNT>  (25) 
0

>  <PUBCHEM_IUPAC_CAS_NAME>  (25) 
4-[[[4-ethyl-5-(phenoxymethyl)-1,2,4-triazol-3-yl]thio]methyl]benzonitrile

>  <PUBCHEM_IUPAC_INCHI>  (25) 
InChI=1S/C19H18N4OS/c1-2-23-18(13-24-17-6-4-3-5-7-17)21-22-19(23)25-14-16-10-8-15(12-20)9-11-16/h3-11H,2,13-14H2,1H3

>  <PUBCHEM_IUPAC_INCHIKEY>  (25) 
RNGHWMDYNNVLLB-UHFFFAOYSA-N

>  <PUBCHEM_IUPAC_NAME>  (25) 
4-[[4-ethyl-5-(phenoxymethyl)-1,2,4-triazol-3-yl]sulfanylmethyl]benzonitrile

>  <PUBCHEM_IUPAC_OPENEYE_NAME>  (25) 
4-[[4-ethyl-5-(phenoxymethyl)-1,2,4-triazol-3-yl]sulfanylmethyl]benzonitrile

>  <PUBCHEM_IUPAC_SYSTEMATIC_NAME>  (25) 
4-[[4-ethyl-5-(phenoxymethyl)-1,2,4-triazol-3-yl]sulfanylmethyl]benzenecarbonitrile

>  <PUBCHEM_IUPAC_TRADITIONAL_NAME>  (25) 
4-[[[4-ethyl-5-(phenoxymethyl)-1,2,4-triazol-3-yl]thio]methyl]benzonitrile

>  <PUBCHEM_MOLECULAR_FORMULA>  (25) 
C19H18N4OS

>  <PUBCHEM_MOLECULAR_WEIGHT>  (25) 
350.43742

>  <PUBCHEM_MONOISOTOPIC_WEIGHT>  (25) 
350.120132

>  <PUBCHEM_OPENEYE_CAN_SMILES>  (25) 
CCN1C(=NN=C1SCC2=CC=C(C=C2)C#N)COC3=CC=CC=C3

>  <PUBCHEM_OPENEYE_ISO_SMILES>  (25) 
CCN1C(=NN=C1SCC2=CC=C(C=C2)C#N)COC3=CC=CC=C3

>  <PUBCHEM_TOTAL_CHARGE>  (25) 
0

>  <PUBCHEM_XLOGP3_AA>  (25) 
3.3

$$$$
Largest isolated from Written by BCL::WriteToMDL,660907
     RDKit          2D

 40 42  0 40  0  0  0  0  0  0999 V2000
   -0.9891    0.5224    0.0000 N   0  0  0  0  0  0  0  0  0  0  0  0
   -1.2426    3.1834    0.0000 N   0  0  0  0  0  0  0  0  0  0  0  0
   -4.1442   -2.9729    0.0000 N   0  0  0  0  0  0  0  0  0  0  0  0
   -6.2978    0.4154    0.0000 N   0  0  0  0  0  0  0  0  0  0  0  0
   -5.5593    3.3249    0.0000 N   0  0  0  0  0  0  0  0  0  0  0  0
   -1.9444   -0.6340    0.0000 C   0  0  0  0  0  0  0  0  0  0  0  0
   -3.3395   -0.0828    0.0000 C   0  0  0  0  0  0  0  0  0  0  0  0
   -3.2464    1.4143    0.0000 C   0  0  0  0  0  0  0  0  0  0  0  0
   -1.7938    1.7884    0.0000 C   0  0  0  0  0  0  0  0  0  0  0  0
   -0.6944   -1.4632    0.0000 C   0  0  0  0  0  0  0  0  0  0  0  0
    0.5080    0.4293    0.0000 C   0  0  0  0  0  0  0  0  0  0  0  0
    0.6486   -0.7953    0.0000 C   0  0  0  0  0  0  0  0  0  0  0  0
   -0.7876   -2.9603    0.0000 C   0  0  0  0  0  0  0  0  0  0  0  0
   -3.7418   -1.5279    0.0000 C   0  0  0  0  0  0  0  0  0  0  0  0
   -4.8187    0.1663    0.0000 C   0  0  0  0  0  0  0  0  0  0  0  0
    1.3372    1.6793    0.0000 C   0  0  0  0  0  0  0  0  0  0  0  0
    1.1759   -0.9138    0.0000 C   0  0  0  0  0  0  0  0  0  0  0  0
   -4.4028    2.3696    0.0000 C   0  0  0  0  0  0  0  0  0  0  0  0
    2.8343    1.5862    0.0000 C   0  0  0  0  0  0  0  0  0  0  0  0
    1.8986   -1.6245    0.0000 C   0  0  0  0  0  0  0  0  0  0  0  0
    0.4624   -3.7895    0.0000 C   0  0  0  0  0  0  0  0  0  0  0  0
    2.6730   -1.0069    0.0000 C   0  0  0  0  0  0  0  0  0  0  0  0
    3.5022    0.2431    0.0000 C   0  0  0  0  0  0  0  0  0  0  0  0
    1.8055   -3.1216    0.0000 C   0  0  0  0  0  0  0  0  0  0  0  0
    3.6635    2.8362    0.0000 C   0  0  0  0  0  0  0  0  0  0  0  0
   -2.6384   -1.9638    0.0000 H   0  0  0  0  0  0  0  0  0  0  0  0
    1.1012    0.6348    0.0000 H   0  0  0  0  0  0  0  0  0  0  0  0
   -2.1306   -3.6282    0.0000 H   0  0  0  0  0  0  0  0  0  0  0  0
    0.8380    3.0938    0.0000 H   0  0  0  0  0  0  0  0  0  0  0  0
   -2.1751    4.3583    0.0000 H   0  0  0  0  0  0  0  0  0  0  0  0
    0.2033    3.5828    0.0000 H   0  0  0  0  0  0  0  0  0  0  0  0
    0.3467   -2.1637    0.0000 H   0  0  0  0  0  0  0  0  0  0  0  0
    3.3634   -1.3014    0.0000 H   0  0  0  0  0  0  0  0  0  0  0  0
    0.3693   -5.2866    0.0000 H   0  0  0  0  0  0  0  0  0  0  0  0
    3.3409   -2.3499    0.0000 H   0  0  0  0  0  0  0  0  0  0  0  0
    4.9993    0.1500    0.0000 H   0  0  0  0  0  0  0  0  0  0  0  0
    3.0555   -3.9508    0.0000 H   0  0  0  0  0  0  0  0  0  0  0  0
    4.9135    2.0070    0.0000 H   0  0  0  0  0  0  0  0  0  0  0  0
    2.4135    3.6654    0.0000 H   0  0  0  0  0  0  0  0  0  0  0  0
    4.4927    4.0862    0.0000 H   0  0  0  0  0  0  0  0  0  0  0  0
  1  6  1  0
  1  9  1  0
  1 11  1  0
  2  9  1  0
  2 30  1  0
  2 31  1  0
  3 14  3  0
  4 15  3  0
  5 18  3  0
  6  7  1  0
  6 10  1  0
  6 26  1  1
  7  8  1  0
  7 14  1  0
  7 15  1  0
  8  9  2  0
  8 18  1  0
 10 12  2  0
 10 13  1  0
 11 16  2  0
 11 17  1  0
 12 20  1  0
 12 27  1  0
 13 21  2  0
 13 28  1  0
 16 19  1  0
 16 29  1  0
 17 22  2  0
 17 32  1  0
 19 23  2  0
 19 25  1  0
 20 24  2  0
 20 33  1  0
 21 24  1  0
 21 34  1  0
 22 23  1  0
 22 35  1  0
 23 36  1  0
 24 37  1  0
 25 38  1  0
 25 39  1  0
 25 40  1  0
M  STY  8   1 DAT   2 DAT   3 DAT   4 DAT   5 DAT   6 DAT   7 DAT   8 DAT
M  STY  8   9 DAT  10 DAT  11 DAT  12 DAT  13 DAT  14 DAT  15 DAT  16 DAT
M  STY  8  17 DAT  18 DAT  19 DAT  20 DAT  21 DAT  22 DAT  23 DAT  24 DAT
M  STY  8  25 DAT  26 DAT  27 DAT  28 DAT  29 DAT  30 DAT  31 DAT  32 DAT
M  STY  8  33 DAT  34 DAT  35 DAT  36 DAT  37 DAT  38 DAT  39 DAT  40 DAT
M  SAL   1  1   1
M  SED   1 [#7&h0]
M  SAL   2  1   2
M  SED   2 [#7&h0]
M  SAL   3  1   3
M  SED   3 [#7&h0]
M  SAL   4  1   4
M  SED   4 [#7&h0]
M  SAL   5  1   5
M  SED   5 [#7&h0]
M  SAL   6  1   6
M  SED   6 [#6&h0]
M  SAL   7  1   7
M  SED   7 [#6&h0]
M  SAL   8  1   8
M  SED   8 [#6&h0]
M  SAL   9  1   9
M  SED   9 [#6&h0]
M  SAL  10  1  10
M  SED  10 [#6&h0]
M  SAL  11  1  11
M  SED  11 [#6&h0]
M  SAL  12  1  12
M  SED  12 [#6&h0]
M  SAL  13  1  13
M  SED  13 [#6&h0]
M  SAL  14  1  14
M  SED  14 [#6&h0]
M  SAL  15  1  15
M  SED  15 [#6&h0]
M  SAL  16  1  16
M  SED  16 [#6&h0]
M  SAL  17  1  17
M  SED  17 [#6&h0]
M  SAL  18  1  18
M  SED  18 [#6&h0]
M  SAL  19  1  19
M  SED  19 [#6&h0]
M  SAL  20  1  20
M  SED  20 [#6&h0]
M  SAL  21  1  21
M  SED  21 [#6&h0]
M  SAL  22  1  22
M  SED  22 [#6&h0]
M  SAL  23  1  23
M  SED  23 [#6&h0]
M  SAL  24  1  24
M  SED  24 [#6&h0]
M  SAL  25  1  25
M  SED  25 [#6&h0]
M  SAL  26  1  26
M  SED  26 [#1&h0]
M  SAL  27  1  27
M  SED  27 [#1&h0]
M  SAL  28  1  28
M  SED  28 [#1&h0]
M  SAL  29  1  29
M  SED  29 [#1&h0]
M  SAL  30  1  30
M  SED  30 [#1&h0]
M  SAL  31  1  31
M  SED  31 [#1&h0]
M  SAL  32  1  32
M  SED  32 [#1&h0]
M  SAL  33  1  33
M  SED  33 [#1&h0]
M  SAL  34  1  34
M  SED  34 [#1&h0]
M  SAL  35  1  35
M  SED  35 [#1&h0]
M  SAL  36  1  36
M  SED  36 [#1&h0]
M  SAL  37  1  37
M  SED  37 [#1&h0]
M  SAL  38  1  38
M  SED  38 [#1&h0]
M  SAL  39  1  39
M  SED  39 [#1&h0]
M  SAL  40  1  40
M  SED  40 [#1&h0]
M  END
>  <Activity>  (26) 
0.01

>  <Mapped(file=2032.csv.activities,property=Cached(PUBCHEM_COMPOUND_CID))>  (26) 
100

>  <MatchIndices>  (26) 
225 

>  <PUBCHEM_ATOM_DEF_STEREO_COUNT>  (26) 
0

>  <PUBCHEM_ATOM_UDEF_STEREO_COUNT>  (26) 
1

>  <PUBCHEM_BONDANNOTATIONS>  (26) 
10  12  8
10  13  8
11  16  8
11  17  8
12  20  8
13  21  8
16  19  8
17  22  8
19  23  8
20  24  8
21  24  8
22  23  8
6  10  3

>  <PUBCHEM_BOND_DEF_STEREO_COUNT>  (26) 
0

>  <PUBCHEM_BOND_UDEF_STEREO_COUNT>  (26) 
0

>  <PUBCHEM_CACTVS_COMPLEXITY>  (26) 
686

>  <PUBCHEM_CACTVS_HBOND_ACCEPTOR>  (26) 
5

>  <PUBCHEM_CACTVS_HBOND_DONOR>  (26) 
1

>  <PUBCHEM_CACTVS_ROTATABLE_BOND>  (26) 
2

>  <PUBCHEM_CACTVS_SUBSKEYS>  (26) 
AAADccB7gAAAAAAAAAAAAAAAAAAAAQAAAAAwYAAAAAAAAAABQAAAHAAQAAAADijBGAQzwINAAACQBiRCQACiAAAhAgAIiAAIZIiIoCLAkZGEIAhggALIyC8QgMAPAAAAQAAAAAAAAACAAAAAAAAAAAAAAA==

>  <PUBCHEM_CACTVS_TAUTO_COUNT>  (26) 
2

>  <PUBCHEM_CACTVS_TPSA>  (26) 
101

>  <PUBCHEM_COMPONENT_COUNT>  (26) 
1

>  <PUBCHEM_COMPOUND_CANONICALIZED>  (26) 
1

>  <PUBCHEM_COMPOUND_CID>  (26) 
660907

>  <PUBCHEM_COORDINATE_TYPE>  (26) 
1
5
255

>  <PUBCHEM_EXACT_MASS>  (26) 
325.132746

>  <PUBCHEM_HEAVY_ATOM_COUNT>  (26) 
25

>  <PUBCHEM_ISOTOPIC_ATOM_COUNT>  (26) 
0

>  <PUBCHEM_IUPAC_CAS_NAME>  (26) 
5-amino-1-(3-methylphenyl)-2-phenyl-2H-pyrrole-3,3,4-tricarbonitrile

>  <PUBCHEM_IUPAC_INCHI>  (26) 
InChI=1S/C20H15N5/c1-14-6-5-9-16(10-14)25-18(15-7-3-2-4-8-15)20(12-22,13-23)17(11-21)19(25)24/h2-10,18H,24H2,1H3

>  <PUBCHEM_IUPAC_INCHIKEY>  (26) 
SNTJIIZCJXPGLE-UHFFFAOYSA-N

>  <PUBCHEM_IUPAC_NAME>  (26) 
5-amino-1-(3-methylphenyl)-2-phenyl-2H-pyrrole-3,3,4-tricarbonitrile

>  <PUBCHEM_IUPAC_OPENEYE_NAME>  (26) 
5-amino-1-(m-tolyl)-2-phenyl-2H-pyrrole-3,3,4-tricarbonitrile

>  <PUBCHEM_IUPAC_SYSTEMATIC_NAME>  (26) 
5-azanyl-1-(3-methylphenyl)-2-phenyl-2H-pyrrole-3,3,4-tricarbonitrile

>  <PUBCHEM_IUPAC_TRADITIONAL_NAME>  (26) 
5-amino-1-(m-tolyl)-2-phenyl-2-pyrroline-3,3,4-tricarbonitrile

>  <PUBCHEM_MOLECULAR_FORMULA>  (26) 
C20H15N5

>  <PUBCHEM_MOLECULAR_WEIGHT>  (26) 
325.3666

>  <PUBCHEM_MONOISOTOPIC_WEIGHT>  (26) 
325.132746

>  <PUBCHEM_OPENEYE_CAN_SMILES>  (26) 
CC1=CC(=CC=C1)N2C(C(C(=C2N)C#N)(C#N)C#N)C3=CC=CC=C3

>  <PUBCHEM_OPENEYE_ISO_SMILES>  (26) 
CC1=CC(=CC=C1)N2C(C(C(=C2N)C#N)(C#N)C#N)C3=CC=CC=C3

>  <PUBCHEM_TOTAL_CHARGE>  (26) 
0

>  <PUBCHEM_XLOGP3_AA>  (26) 
3.1

$$$$
Largest isolated from Written by BCL::WriteToMDL,1488386
     RDKit          2D

 37 38  0 37  0  0  0  0  0  0999 V2000
   -4.2305    3.5337    0.0000 Cl  0  0  0  0  0  0  0  0  0  0  0  0
   -0.2392    0.2066    0.0000 S   0  0  0  0  0  0  0  0  0  0  0  0
    0.7960   -2.6091    0.0000 O   0  0  0  0  0  0  0  0  0  0  0  0
   -0.6731   -1.2292    0.0000 O   0  0  0  0  0  0  0  0  0  0  0  0
   -0.1796    1.4202    0.0000 O   0  0  0  0  0  0  0  0  0  0  0  0
    3.2345   -1.7125    0.0000 N   0  0  0  0  0  0  0  0  0  0  0  0
    1.2389   -0.0490    0.0000 C   0  0  0  0  0  0  0  0  0  0  0  0
    2.1993    1.1032    0.0000 C   0  0  0  0  0  0  0  0  0  0  0  0
   -1.7172    0.4623    0.0000 C   0  0  0  0  0  0  0  0  0  0  0  0
    1.7565   -1.4569    0.0000 C   0  0  0  0  0  0  0  0  0  0  0  0
    3.6774    0.8475    0.0000 C   0  0  0  0  0  0  0  0  0  0  0  0
    4.1950   -0.5603    0.0000 C   0  0  0  0  0  0  0  0  0  0  0  0
    1.6817    2.5110    0.0000 C   0  0  0  0  0  0  0  0  0  0  0  0
   -2.2349    1.8702    0.0000 C   0  0  0  0  0  0  0  0  0  0  0  0
   -2.6777   -0.6899    0.0000 C   0  0  0  0  0  0  0  0  0  0  0  0
    5.6730   -0.8160    0.0000 C   0  0  0  0  0  0  0  0  0  0  0  0
   -3.7129    2.1258    0.0000 C   0  0  0  0  0  0  0  0  0  0  0  0
   -4.1557   -0.4342    0.0000 C   0  0  0  0  0  0  0  0  0  0  0  0
   -0.6820   -2.3534    0.0000 C   0  0  0  0  0  0  0  0  0  0  0  0
   -4.6733    0.9736    0.0000 C   0  0  0  0  0  0  0  0  0  0  0  0
   -2.1601   -2.0977    0.0000 C   0  0  0  0  0  0  0  0  0  0  0  0
    4.6378    1.9997    0.0000 H   0  0  0  0  0  0  0  0  0  0  0  0
    0.4987    2.2339    0.0000 H   0  0  0  0  0  0  0  0  0  0  0  0
    3.0895    3.0287    0.0000 H   0  0  0  0  0  0  0  0  0  0  0  0
    1.1641    3.9189    0.0000 H   0  0  0  0  0  0  0  0  0  0  0  0
   -1.2744    3.0224    0.0000 H   0  0  0  0  0  0  0  0  0  0  0  0
   -2.5918   -1.4824    0.0000 H   0  0  0  0  0  0  0  0  0  0  0  0
    5.4174   -2.2940    0.0000 H   0  0  0  0  0  0  0  0  0  0  0  0
    5.9287    0.6621    0.0000 H   0  0  0  0  0  0  0  0  0  0  0  0
    7.1511   -1.0717    0.0000 H   0  0  0  0  0  0  0  0  0  0  0  0
   -0.9377   -3.8315    0.0000 H   0  0  0  0  0  0  0  0  0  0  0  0
   -0.6084   -0.8552    0.0000 H   0  0  0  0  0  0  0  0  0  0  0  0
   -5.1162   -1.5864    0.0000 H   0  0  0  0  0  0  0  0  0  0  0  0
   -6.1514    1.2293    0.0000 H   0  0  0  0  0  0  0  0  0  0  0  0
   -2.4157   -3.5758    0.0000 H   0  0  0  0  0  0  0  0  0  0  0  0
   -2.2696   -0.6018    0.0000 H   0  0  0  0  0  0  0  0  0  0  0  0
   -3.6381   -1.8421    0.0000 H   0  0  0  0  0  0  0  0  0  0  0  0
  1 17  1  0
  2  4  2  0
  2  5  2  0
  2  7  1  0
  2  9  1  0
  3 10  1  0
  3 19  1  0
  6 10  2  0
  6 12  1  0
  7  8  2  0
  7 10  1  0
  8 11  1  0
  8 13  1  0
  9 14  2  0
  9 15  1  0
 11 12  2  0
 11 22  1  0
 12 16  1  0
 13 23  1  0
 13 24  1  0
 13 25  1  0
 14 17  1  0
 14 26  1  0
 15 18  2  0
 15 27  1  0
 16 28  1  0
 16 29  1  0
 16 30  1  0
 17 20  2  0
 18 20  1  0
 18 33  1  0
 19 21  1  0
 19 31  1  0
 19 32  1  0
 20 34  1  0
 21 35  1  0
 21 36  1  0
 21 37  1  0
M  STY  8   1 DAT   2 DAT   3 DAT   4 DAT   5 DAT   6 DAT   7 DAT   8 DAT
M  STY  8   9 DAT  10 DAT  11 DAT  12 DAT  13 DAT  14 DAT  15 DAT  16 DAT
M  STY  8  17 DAT  18 DAT  19 DAT  20 DAT  21 DAT  22 DAT  23 DAT  24 DAT
M  STY  8  25 DAT  26 DAT  27 DAT  28 DAT  29 DAT  30 DAT  31 DAT  32 DAT
M  STY  5  33 DAT  34 DAT  35 DAT  36 DAT  37 DAT
M  SAL   1  1   1
M  SED   1 [#17&h0]
M  SAL   2  1   2
M  SED   2 [#16&h0]
M  SAL   3  1   3
M  SED   3 [#8&h0]
M  SAL   4  1   4
M  SED   4 [#8&h0]
M  SAL   5  1   5
M  SED   5 [#8&h0]
M  SAL   6  1   6
M  SED   6 [#7&h0]
M  SAL   7  1   7
M  SED   7 [#6&h0]
M  SAL   8  1   8
M  SED   8 [#6&h0]
M  SAL   9  1   9
M  SED   9 [#6&h0]
M  SAL  10  1  10
M  SED  10 [#6&h0]
M  SAL  11  1  11
M  SED  11 [#6&h0]
M  SAL  12  1  12
M  SED  12 [#6&h0]
M  SAL  13  1  13
M  SED  13 [#6&h0]
M  SAL  14  1  14
M  SED  14 [#6&h0]
M  SAL  15  1  15
M  SED  15 [#6&h0]
M  SAL  16  1  16
M  SED  16 [#6&h0]
M  SAL  17  1  17
M  SED  17 [#6&h0]
M  SAL  18  1  18
M  SED  18 [#6&h0]
M  SAL  19  1  19
M  SED  19 [#6&h0]
M  SAL  20  1  20
M  SED  20 [#6&h0]
M  SAL  21  1  21
M  SED  21 [#6&h0]
M  SAL  22  1  22
M  SED  22 [#1&h0]
M  SAL  23  1  23
M  SED  23 [#1&h0]
M  SAL  24  1  24
M  SED  24 [#1&h0]
M  SAL  25  1  25
M  SED  25 [#1&h0]
M  SAL  26  1  26
M  SED  26 [#1&h0]
M  SAL  27  1  27
M  SED  27 [#1&h0]
M  SAL  28  1  28
M  SED  28 [#1&h0]
M  SAL  29  1  29
M  SED  29 [#1&h0]
M  SAL  30  1  30
M  SED  30 [#1&h0]
M  SAL  31  1  31
M  SED  31 [#1&h0]
M  SAL  32  1  32
M  SED  32 [#1&h0]
M  SAL  33  1  33
M  SED  33 [#1&h0]
M  SAL  34  1  34
M  SED  34 [#1&h0]
M  SAL  35  1  35
M  SED  35 [#1&h0]
M  SAL  36  1  36
M  SED  36 [#1&h0]
M  SAL  37  1  37
M  SED  37 [#1&h0]
M  END
>  <Activity>  (27) 
0.01

>  <Mapped(file=2032.csv.activities,property=Cached(PUBCHEM_COMPOUND_CID))>  (27) 
100

>  <MatchIndices>  (27) 
100 

>  <PUBCHEM_ATOM_DEF_STEREO_COUNT>  (27) 
0

>  <PUBCHEM_ATOM_UDEF_STEREO_COUNT>  (27) 
0

>  <PUBCHEM_BONDANNOTATIONS>  (27) 
11  12  8
14  17  8
15  18  8
17  20  8
18  20  8
6  10  8
6  12  8
7  10  8
7  8  8
8  11  8
9  14  8
9  15  8

>  <PUBCHEM_BOND_DEF_STEREO_COUNT>  (27) 
0

>  <PUBCHEM_BOND_UDEF_STEREO_COUNT>  (27) 
0

>  <PUBCHEM_CACTVS_COMPLEXITY>  (27) 
437

>  <PUBCHEM_CACTVS_HBOND_ACCEPTOR>  (27) 
4

>  <PUBCHEM_CACTVS_HBOND_DONOR>  (27) 
0

>  <PUBCHEM_CACTVS_ROTATABLE_BOND>  (27) 
4

>  <PUBCHEM_CACTVS_SUBSKEYS>  (27) 
AAADceByMABEAAAAAAAAAAAAAAAAAAAAAAA8QAAAAAAAAAABwAAAHgYAAAAADAqh3iIyhZIIFAqgAyRiRHDCiCAhLzAImD40bpgMJmLls5uOOCjkwBHo6AeQUAEOAAAAABAAAAAAAAAAIAAAAAAAAAAAAA==

>  <PUBCHEM_CACTVS_TAUTO_COUNT>  (27) 
1

>  <PUBCHEM_CACTVS_TPSA>  (27) 
64.6

>  <PUBCHEM_COMPONENT_COUNT>  (27) 
1

>  <PUBCHEM_COMPOUND_CANONICALIZED>  (27) 
1

>  <PUBCHEM_COMPOUND_CID>  (27) 
1488386

>  <PUBCHEM_COORDINATE_TYPE>  (27) 
1
5
255

>  <PUBCHEM_EXACT_MASS>  (27) 
325.053942

>  <PUBCHEM_HEAVY_ATOM_COUNT>  (27) 
21

>  <PUBCHEM_ISOTOPIC_ATOM_COUNT>  (27) 
0

>  <PUBCHEM_IUPAC_CAS_NAME>  (27) 
3-(3-chlorophenyl)sulfonyl-2-ethoxy-4,6-dimethylpyridine

>  <PUBCHEM_IUPAC_INCHI>  (27) 
InChI=1S/C15H16ClNO3S/c1-4-20-15-14(10(2)8-11(3)17-15)21(18,19)13-7-5-6-12(16)9-13/h5-9H,4H2,1-3H3

>  <PUBCHEM_IUPAC_INCHIKEY>  (27) 
HRXMHDDRBMAQDP-UHFFFAOYSA-N

>  <PUBCHEM_IUPAC_NAME>  (27) 
3-(3-chlorophenyl)sulfonyl-2-ethoxy-4,6-dimethylpyridine

>  <PUBCHEM_IUPAC_OPENEYE_NAME>  (27) 
3-(3-chlorophenyl)sulfonyl-2-ethoxy-4,6-dimethyl-pyridine

>  <PUBCHEM_IUPAC_SYSTEMATIC_NAME>  (27) 
3-(3-chlorophenyl)sulfonyl-2-ethoxy-4,6-dimethyl-pyridine

>  <PUBCHEM_IUPAC_TRADITIONAL_NAME>  (27) 
3-(3-chlorophenyl)sulfonyl-2-ethoxy-4,6-dimethyl-pyridine

>  <PUBCHEM_MOLECULAR_FORMULA>  (27) 
C15H16ClNO3S

>  <PUBCHEM_MOLECULAR_WEIGHT>  (27) 
325.81044

>  <PUBCHEM_MONOISOTOPIC_WEIGHT>  (27) 
325.053942

>  <PUBCHEM_OPENEYE_CAN_SMILES>  (27) 
CCOC1=C(C(=CC(=N1)C)C)S(=O)(=O)C2=CC(=CC=C2)Cl

>  <PUBCHEM_OPENEYE_ISO_SMILES>  (27) 
CCOC1=C(C(=CC(=N1)C)C)S(=O)(=O)C2=CC(=CC=C2)Cl

>  <PUBCHEM_TOTAL_CHARGE>  (27) 
0

>  <PUBCHEM_XLOGP3_AA>  (27) 
3.7

$$$$
Largest isolated from Written by BCL::WriteToMDL,2977939
     RDKit          2D

 37 37  0 37  0  0  0  0  0  0999 V2000
   -1.1386    1.1259    0.0000 Br  0  0  0  0  0  0  0  0  0  0  0  0
   -5.6146    3.7650    0.0000 Cl  0  0  0  0  0  0  0  0  0  0  0  0
   -2.6623   -1.4583    0.0000 O   0  0  0  0  0  0  0  0  0  0  0  0
    5.6230    2.3631    0.0000 O   0  0  0  0  0  0  0  0  0  0  0  0
    3.3374   -1.5133    0.0000 N   0  0  0  0  0  0  0  0  0  0  0  0
    1.8375   -1.4995    0.0000 C   0  0  0  0  0  0  0  0  0  0  0  0
    0.3375   -1.4858    0.0000 C   0  0  0  0  0  0  0  0  0  0  0  0
    4.0993   -0.2211    0.0000 C   0  0  0  0  0  0  0  0  0  0  0  0
    4.8611    1.0710    0.0000 C   0  0  0  0  0  0  0  0  0  0  0  0
   -1.1624   -1.4721    0.0000 C   0  0  0  0  0  0  0  0  0  0  0  0
    6.1532    0.3091    0.0000 C   0  0  0  0  0  0  0  0  0  0  0  0
   -3.4004   -0.1525    0.0000 C   0  0  0  0  0  0  0  0  0  0  0  0
   -4.9004   -0.1388    0.0000 C   0  0  0  0  0  0  0  0  0  0  0  0
   -2.6386    1.1396    0.0000 C   0  0  0  0  0  0  0  0  0  0  0  0
   -5.6384    1.1671    0.0000 C   0  0  0  0  0  0  0  0  0  0  0  0
   -5.6622   -1.4309    0.0000 C   0  0  0  0  0  0  0  0  0  0  0  0
   -3.3766    2.4455    0.0000 C   0  0  0  0  0  0  0  0  0  0  0  0
   -4.8766    2.4592    0.0000 C   0  0  0  0  0  0  0  0  0  0  0  0
    1.8237   -2.9995    0.0000 H   0  0  0  0  0  0  0  0  0  0  0  0
    1.8512    0.0004    0.0000 H   0  0  0  0  0  0  0  0  0  0  0  0
    0.3238   -2.9857    0.0000 H   0  0  0  0  0  0  0  0  0  0  0  0
    0.3513    0.0141    0.0000 H   0  0  0  0  0  0  0  0  0  0  0  0
    4.8017   -0.7607    0.0000 H   0  0  0  0  0  0  0  0  0  0  0  0
    2.8072    0.5407    0.0000 H   0  0  0  0  0  0  0  0  0  0  0  0
    4.0755   -2.8191    0.0000 H   0  0  0  0  0  0  0  0  0  0  0  0
    3.5690    1.8328    0.0000 H   0  0  0  0  0  0  0  0  0  0  0  0
   -1.1761   -2.9720    0.0000 H   0  0  0  0  0  0  0  0  0  0  0  0
   -1.1487    0.0279    0.0000 H   0  0  0  0  0  0  0  0  0  0  0  0
    5.7997   -0.5030    0.0000 H   0  0  0  0  0  0  0  0  0  0  0  0
    6.9151    1.6012    0.0000 H   0  0  0  0  0  0  0  0  0  0  0  0
    7.4454   -0.4527    0.0000 H   0  0  0  0  0  0  0  0  0  0  0  0
    4.8849    3.6689    0.0000 H   0  0  0  0  0  0  0  0  0  0  0  0
   -7.1384    1.1808    0.0000 H   0  0  0  0  0  0  0  0  0  0  0  0
   -4.3701   -2.1927    0.0000 H   0  0  0  0  0  0  0  0  0  0  0  0
   -6.9543   -0.6690    0.0000 H   0  0  0  0  0  0  0  0  0  0  0  0
   -6.4241   -2.7230    0.0000 H   0  0  0  0  0  0  0  0  0  0  0  0
   -2.6148    3.7376    0.0000 H   0  0  0  0  0  0  0  0  0  0  0  0
  1 14  1  0
  2 18  1  0
  3 10  1  0
  3 12  1  0
  4  9  1  0
  4 32  1  0
  5  6  1  0
  5  8  1  0
  5 25  1  0
  6  7  1  0
  6 19  1  0
  6 20  1  0
  7 10  1  0
  7 21  1  0
  7 22  1  0
  8  9  1  0
  8 23  1  0
  8 24  1  0
  9 11  1  0
  9 26  1  1
 10 27  1  0
 10 28  1  0
 11 29  1  0
 11 30  1  0
 11 31  1  0
 12 13  2  0
 12 14  1  0
 13 15  1  0
 13 16  1  0
 14 17  2  0
 15 18  2  0
 15 33  1  0
 16 34  1  0
 16 35  1  0
 16 36  1  0
 17 18  1  0
 17 37  1  0
M  STY  8   1 DAT   2 DAT   3 DAT   4 DAT   5 DAT   6 DAT   7 DAT   8 DAT
M  STY  8   9 DAT  10 DAT  11 DAT  12 DAT  13 DAT  14 DAT  15 DAT  16 DAT
M  STY  8  17 DAT  18 DAT  19 DAT  20 DAT  21 DAT  22 DAT  23 DAT  24 DAT
M  STY  8  25 DAT  26 DAT  27 DAT  28 DAT  29 DAT  30 DAT  31 DAT  32 DAT
M  STY  5  33 DAT  34 DAT  35 DAT  36 DAT  37 DAT
M  SAL   1  1   1
M  SED   1 [#35&h0]
M  SAL   2  1   2
M  SED   2 [#17&h0]
M  SAL   3  1   3
M  SED   3 [#8&h0]
M  SAL   4  1   4
M  SED   4 [#8&h0]
M  SAL   5  1   5
M  SED   5 [#7&h0]
M  SAL   6  1   6
M  SED   6 [#6&h0]
M  SAL   7  1   7
M  SED   7 [#6&h0]
M  SAL   8  1   8
M  SED   8 [#6&h0]
M  SAL   9  1   9
M  SED   9 [#6&h0]
M  SAL  10  1  10
M  SED  10 [#6&h0]
M  SAL  11  1  11
M  SED  11 [#6&h0]
M  SAL  12  1  12
M  SED  12 [#6&h0]
M  SAL  13  1  13
M  SED  13 [#6&h0]
M  SAL  14  1  14
M  SED  14 [#6&h0]
M  SAL  15  1  15
M  SED  15 [#6&h0]
M  SAL  16  1  16
M  SED  16 [#6&h0]
M  SAL  17  1  17
M  SED  17 [#6&h0]
M  SAL  18  1  18
M  SED  18 [#6&h0]
M  SAL  19  1  19
M  SED  19 [#1&h0]
M  SAL  20  1  20
M  SED  20 [#1&h0]
M  SAL  21  1  21
M  SED  21 [#1&h0]
M  SAL  22  1  22
M  SED  22 [#1&h0]
M  SAL  23  1  23
M  SED  23 [#1&h0]
M  SAL  24  1  24
M  SED  24 [#1&h0]
M  SAL  25  1  25
M  SED  25 [#1&h0]
M  SAL  26  1  26
M  SED  26 [#1&h0]
M  SAL  27  1  27
M  SED  27 [#1&h0]
M  SAL  28  1  28
M  SED  28 [#1&h0]
M  SAL  29  1  29
M  SED  29 [#1&h0]
M  SAL  30  1  30
M  SED  30 [#1&h0]
M  SAL  31  1  31
M  SED  31 [#1&h0]
M  SAL  32  1  32
M  SED  32 [#1&h0]
M  SAL  33  1  33
M  SED  33 [#1&h0]
M  SAL  34  1  34
M  SED  34 [#1&h0]
M  SAL  35  1  35
M  SED  35 [#1&h0]
M  SAL  36  1  36
M  SED  36 [#1&h0]
M  SAL  37  1  37
M  SED  37 [#1&h0]
M  END
>  <Activity>  (28) 
0.01

>  <Mapped(file=2032.csv.activities,property=Cached(PUBCHEM_COMPOUND_CID))>  (28) 
100

>  <MatchIndices>  (28) 
89 

>  <PUBCHEM_ATOM_DEF_STEREO_COUNT>  (28) 
0

>  <PUBCHEM_ATOM_UDEF_STEREO_COUNT>  (28) 
1

>  <PUBCHEM_BONDANNOTATIONS>  (28) 
12  13  8
12  14  8
13  15  8
14  17  8
15  18  8
17  18  8
9  4  3

>  <PUBCHEM_BOND_DEF_STEREO_COUNT>  (28) 
0

>  <PUBCHEM_BOND_UDEF_STEREO_COUNT>  (28) 
0

>  <PUBCHEM_CACTVS_COMPLEXITY>  (28) 
233

>  <PUBCHEM_CACTVS_HBOND_ACCEPTOR>  (28) 
3

>  <PUBCHEM_CACTVS_HBOND_DONOR>  (28) 
2

>  <PUBCHEM_CACTVS_ROTATABLE_BOND>  (28) 
7

>  <PUBCHEM_CACTVS_SUBSKEYS>  (28) 
AAADceByMAAEEAAAAAAAAAAAAAAAAAAAAAAwAAAAAAAAAAABAAAAHgJQCAABrBbhmCYyBoLABgCAAiBCAAACCAAgJQQAiIAMCqgONiKFMxqGOCCm0BGYqheAwCAOACAAMABIBAAAQABgAJAIAAAAAAAAAA==

>  <PUBCHEM_CACTVS_TAUTO_COUNT>  (28) 
1

>  <PUBCHEM_CACTVS_TPSA>  (28) 
41.5

>  <PUBCHEM_COMPONENT_COUNT>  (28) 
1

>  <PUBCHEM_COMPOUND_CANONICALIZED>  (28) 
1

>  <PUBCHEM_COMPOUND_CID>  (28) 
2977939

>  <PUBCHEM_COORDINATE_TYPE>  (28) 
1
5
255

>  <PUBCHEM_EXACT_MASS>  (28) 
335.028769

>  <PUBCHEM_HEAVY_ATOM_COUNT>  (28) 
18

>  <PUBCHEM_ISOTOPIC_ATOM_COUNT>  (28) 
0

>  <PUBCHEM_IUPAC_CAS_NAME>  (28) 
1-[3-(2-bromo-4-chloro-6-methylphenoxy)propylamino]-2-propanol

>  <PUBCHEM_IUPAC_INCHI>  (28) 
InChI=1S/C13H19BrClNO2/c1-9-6-11(15)7-12(14)13(9)18-5-3-4-16-8-10(2)17/h6-7,10,16-17H,3-5,8H2,1-2H3

>  <PUBCHEM_IUPAC_INCHIKEY>  (28) 
SDUQVCKXWVACFN-UHFFFAOYSA-N

>  <PUBCHEM_IUPAC_NAME>  (28) 
1-[3-(2-bromo-4-chloro-6-methylphenoxy)propylamino]propan-2-ol

>  <PUBCHEM_IUPAC_OPENEYE_NAME>  (28) 
1-[3-(2-bromo-4-chloro-6-methyl-phenoxy)propylamino]propan-2-ol

>  <PUBCHEM_IUPAC_SYSTEMATIC_NAME>  (28) 
1-[3-(2-bromanyl-4-chloranyl-6-methyl-phenoxy)propylamino]propan-2-ol

>  <PUBCHEM_IUPAC_TRADITIONAL_NAME>  (28) 
1-[3-(2-bromo-4-chloro-6-methyl-phenoxy)propylamino]propan-2-ol

>  <PUBCHEM_MOLECULAR_FORMULA>  (28) 
C13H19BrClNO2

>  <PUBCHEM_MOLECULAR_WEIGHT>  (28) 
336.65246

>  <PUBCHEM_MONOISOTOPIC_WEIGHT>  (28) 
335.028769

>  <PUBCHEM_OPENEYE_CAN_SMILES>  (28) 
CC1=CC(=CC(=C1OCCCNCC(C)O)Br)Cl

>  <PUBCHEM_OPENEYE_ISO_SMILES>  (28) 
CC1=CC(=CC(=C1OCCCNCC(C)O)Br)Cl

>  <PUBCHEM_TOTAL_CHARGE>  (28) 
0

>  <PUBCHEM_XLOGP3_AA>  (28) 
3.3

$$$$
Largest isolated from Written by BCL::WriteToMDL,2386422
     RDKit          2D

 44 48  0 44  0  0  0  0  0  0999 V2000
   -0.7947   -0.5348    0.0000 S   0  0  0  0  0  0  0  0  0  0  0  0
   -4.7637   -1.4222    0.0000 S   0  0  0  0  0  0  0  0  0  0  0  0
    4.6411    1.8056    0.0000 O   0  0  0  0  0  0  0  0  0  0  0  0
    1.5601    0.7301    0.0000 N   0  0  0  0  0  0  0  0  0  0  0  0
    0.7602    3.0216    0.0000 N   0  0  0  0  0  0  0  0  0  0  0  0
   -0.4339    2.1138    0.0000 N   0  0  0  0  0  0  0  0  0  0  0  0
   -4.5624    0.9965    0.0000 N   0  0  0  0  0  0  0  0  0  0  0  0
    2.4679   -0.4640    0.0000 C   0  0  0  0  0  0  0  0  0  0  0  0
    1.9926    2.1664    0.0000 C   0  0  0  0  0  0  0  0  0  0  0  0
    3.3757   -1.6581    0.0000 C   0  0  0  0  0  0  0  0  0  0  0  0
    0.0604    0.6976    0.0000 C   0  0  0  0  0  0  0  0  0  0  0  0
    3.4088    2.6608    0.0000 C   0  0  0  0  0  0  0  0  0  0  0  0
   -2.2896   -0.4104    0.0000 C   0  0  0  0  0  0  0  0  0  0  0  0
    2.7954   -3.0414    0.0000 C   0  0  0  0  0  0  0  0  0  0  0  0
    4.8637   -1.4690    0.0000 C   0  0  0  0  0  0  0  0  0  0  0  0
   -3.7844   -0.2860    0.0000 C   0  0  0  0  0  0  0  0  0  0  0  0
   -6.1469   -0.8420    0.0000 C   0  0  0  0  0  0  0  0  0  0  0  0
   -6.0225    0.6529    0.0000 C   0  0  0  0  0  0  0  0  0  0  0  0
    3.8412    4.0971    0.0000 C   0  0  0  0  0  0  0  0  0  0  0  0
    3.7032   -4.2355    0.0000 C   0  0  0  0  0  0  0  0  0  0  0  0
    5.7715   -2.6632    0.0000 C   0  0  0  0  0  0  0  0  0  0  0  0
    5.1912   -4.0464    0.0000 C   0  0  0  0  0  0  0  0  0  0  0  0
   -7.5037   -1.4816    0.0000 C   0  0  0  0  0  0  0  0  0  0  0  0
   -7.2549    1.5080    0.0000 C   0  0  0  0  0  0  0  0  0  0  0  0
    5.3409    4.1296    0.0000 C   0  0  0  0  0  0  0  0  0  0  0  0
    5.8352    2.7134    0.0000 C   0  0  0  0  0  0  0  0  0  0  0  0
   -8.7360   -0.6265    0.0000 C   0  0  0  0  0  0  0  0  0  0  0  0
   -8.6116    0.8684    0.0000 C   0  0  0  0  0  0  0  0  0  0  0  0
    3.6620    0.4438    0.0000 H   0  0  0  0  0  0  0  0  0  0  0  0
    1.2737   -1.3718    0.0000 H   0  0  0  0  0  0  0  0  0  0  0  0
   -2.1651    1.0844    0.0000 H   0  0  0  0  0  0  0  0  0  0  0  0
   -2.4140   -1.9052    0.0000 H   0  0  0  0  0  0  0  0  0  0  0  0
    1.3074   -3.2305    0.0000 H   0  0  0  0  0  0  0  0  0  0  0  0
    5.4439   -0.0858    0.0000 H   0  0  0  0  0  0  0  0  0  0  0  0
    2.9334    5.2912    0.0000 H   0  0  0  0  0  0  0  0  0  0  0  0
    3.1230   -5.6187    0.0000 H   0  0  0  0  0  0  0  0  0  0  0  0
    7.2595   -2.4740    0.0000 H   0  0  0  0  0  0  0  0  0  0  0  0
    6.0990   -5.2405    0.0000 H   0  0  0  0  0  0  0  0  0  0  0  0
   -7.6281   -2.9765    0.0000 H   0  0  0  0  0  0  0  0  0  0  0  0
   -7.1304    3.0029    0.0000 H   0  0  0  0  0  0  0  0  0  0  0  0
    6.1960    5.3619    0.0000 H   0  0  0  0  0  0  0  0  0  0  0  0
    7.2715    2.2809    0.0000 H   0  0  0  0  0  0  0  0  0  0  0  0
  -10.0928   -1.2662    0.0000 H   0  0  0  0  0  0  0  0  0  0  0  0
   -9.8440    1.7235    0.0000 H   0  0  0  0  0  0  0  0  0  0  0  0
  1 11  1  0
  1 13  1  0
  2 16  1  0
  2 17  1  0
  3 12  1  0
  3 26  1  0
  4  8  1  0
  4  9  1  0
  4 11  1  0
  5  6  1  0
  5  9  2  0
  6 11  2  0
  7 16  2  0
  7 18  1  0
  8 10  1  0
  8 29  1  0
  8 30  1  0
  9 12  1  0
 10 14  2  0
 10 15  1  0
 12 19  2  0
 13 16  1  0
 13 31  1  0
 13 32  1  0
 14 20  1  0
 14 33  1  0
 15 21  2  0
 15 34  1  0
 17 18  2  0
 17 23  1  0
 18 24  1  0
 19 25  1  0
 19 35  1  0
 20 22  2  0
 20 36  1  0
 21 22  1  0
 21 37  1  0
 22 38  1  0
 23 27  2  0
 23 39  1  0
 24 28  2  0
 24 40  1  0
 25 26  2  0
 25 41  1  0
 26 42  1  0
 27 28  1  0
 27 43  1  0
 28 44  1  0
M  STY  8   1 DAT   2 DAT   3 DAT   4 DAT   5 DAT   6 DAT   7 DAT   8 DAT
M  STY  8   9 DAT  10 DAT  11 DAT  12 DAT  13 DAT  14 DAT  15 DAT  16 DAT
M  STY  8  17 DAT  18 DAT  19 DAT  20 DAT  21 DAT  22 DAT  23 DAT  24 DAT
M  STY  8  25 DAT  26 DAT  27 DAT  28 DAT  29 DAT  30 DAT  31 DAT  32 DAT
M  STY  8  33 DAT  34 DAT  35 DAT  36 DAT  37 DAT  38 DAT  39 DAT  40 DAT
M  STY  4  41 DAT  42 DAT  43 DAT  44 DAT
M  SAL   1  1   1
M  SED   1 [#16&h0]
M  SAL   2  1   2
M  SED   2 [#16&h0]
M  SAL   3  1   3
M  SED   3 [#8&h0]
M  SAL   4  1   4
M  SED   4 [#7&h0]
M  SAL   5  1   5
M  SED   5 [#7&h0]
M  SAL   6  1   6
M  SED   6 [#7&h0]
M  SAL   7  1   7
M  SED   7 [#7&h0]
M  SAL   8  1   8
M  SED   8 [#6&h0]
M  SAL   9  1   9
M  SED   9 [#6&h0]
M  SAL  10  1  10
M  SED  10 [#6&h0]
M  SAL  11  1  11
M  SED  11 [#6&h0]
M  SAL  12  1  12
M  SED  12 [#6&h0]
M  SAL  13  1  13
M  SED  13 [#6&h0]
M  SAL  14  1  14
M  SED  14 [#6&h0]
M  SAL  15  1  15
M  SED  15 [#6&h0]
M  SAL  16  1  16
M  SED  16 [#6&h0]
M  SAL  17  1  17
M  SED  17 [#6&h0]
M  SAL  18  1  18
M  SED  18 [#6&h0]
M  SAL  19  1  19
M  SED  19 [#6&h0]
M  SAL  20  1  20
M  SED  20 [#6&h0]
M  SAL  21  1  21
M  SED  21 [#6&h0]
M  SAL  22  1  22
M  SED  22 [#6&h0]
M  SAL  23  1  23
M  SED  23 [#6&h0]
M  SAL  24  1  24
M  SED  24 [#6&h0]
M  SAL  25  1  25
M  SED  25 [#6&h0]
M  SAL  26  1  26
M  SED  26 [#6&h0]
M  SAL  27  1  27
M  SED  27 [#6&h0]
M  SAL  28  1  28
M  SED  28 [#6&h0]
M  SAL  29  1  29
M  SED  29 [#1&h0]
M  SAL  30  1  30
M  SED  30 [#1&h0]
M  SAL  31  1  31
M  SED  31 [#1&h0]
M  SAL  32  1  32
M  SED  32 [#1&h0]
M  SAL  33  1  33
M  SED  33 [#1&h0]
M  SAL  34  1  34
M  SED  34 [#1&h0]
M  SAL  35  1  35
M  SED  35 [#1&h0]
M  SAL  36  1  36
M  SED  36 [#1&h0]
M  SAL  37  1  37
M  SED  37 [#1&h0]
M  SAL  38  1  38
M  SED  38 [#1&h0]
M  SAL  39  1  39
M  SED  39 [#1&h0]
M  SAL  40  1  40
M  SED  40 [#1&h0]
M  SAL  41  1  41
M  SED  41 [#1&h0]
M  SAL  42  1  42
M  SED  42 [#1&h0]
M  SAL  43  1  43
M  SED  43 [#1&h0]
M  SAL  44  1  44
M  SED  44 [#1&h0]
M  END
>  <Activity>  (29) 
0.01

>  <Mapped(file=2032.csv.activities,property=Cached(PUBCHEM_COMPOUND_CID))>  (29) 
100

>  <MatchIndices>  (29) 
171 

>  <PUBCHEM_ATOM_DEF_STEREO_COUNT>  (29) 
0

>  <PUBCHEM_ATOM_UDEF_STEREO_COUNT>  (29) 
0

>  <PUBCHEM_BONDANNOTATIONS>  (29) 
10  14  8
10  15  8
12  19  8
14  20  8
15  21  8
17  18  8
17  23  8
18  24  8
19  25  8
2  16  8
2  17  8
20  22  8
21  22  8
23  27  8
24  28  8
25  26  8
27  28  8
3  12  8
3  26  8
4  11  8
4  9  8
5  6  8
5  9  8
6  11  8
7  16  8
7  18  8

>  <PUBCHEM_BOND_DEF_STEREO_COUNT>  (29) 
0

>  <PUBCHEM_BOND_UDEF_STEREO_COUNT>  (29) 
0

>  <PUBCHEM_CACTVS_COMPLEXITY>  (29) 
507

>  <PUBCHEM_CACTVS_HBOND_ACCEPTOR>  (29) 
3

>  <PUBCHEM_CACTVS_HBOND_DONOR>  (29) 
0

>  <PUBCHEM_CACTVS_ROTATABLE_BOND>  (29) 
6

>  <PUBCHEM_CACTVS_SUBSKEYS>  (29) 
AAADceB7oABgAAAAAAAAAAAAAAAAAWLEgAAwYAAAAAAAAFgB/gAAHgQIAAAADAzl3wax1bcMFEiuA65y5AST+KtnKrhd2D2+bNiOLrLkvbuHOSjkyBP46YeYkQIOAAAAAAAAAQAAAAAAAAACAAAAAAAAAA==

>  <PUBCHEM_CACTVS_TAUTO_COUNT>  (29) 
1

>  <PUBCHEM_CACTVS_TPSA>  (29) 
110

>  <PUBCHEM_COMPONENT_COUNT>  (29) 
1

>  <PUBCHEM_COMPOUND_CANONICALIZED>  (29) 
1

>  <PUBCHEM_COMPOUND_CID>  (29) 
2386422

>  <PUBCHEM_COORDINATE_TYPE>  (29) 
1
5
255

>  <PUBCHEM_EXACT_MASS>  (29) 
404.076553

>  <PUBCHEM_HEAVY_ATOM_COUNT>  (29) 
28

>  <PUBCHEM_ISOTOPIC_ATOM_COUNT>  (29) 
0

>  <PUBCHEM_IUPAC_CAS_NAME>  (29) 
2-[[[5-(2-furanyl)-4-(phenylmethyl)-1,2,4-triazol-3-yl]thio]methyl]-1,3-benzothiazole

>  <PUBCHEM_IUPAC_INCHI>  (29) 
InChI=1S/C21H16N4OS2/c1-2-7-15(8-3-1)13-25-20(17-10-6-12-26-17)23-24-21(25)27-14-19-22-16-9-4-5-11-18(16)28-19/h1-12H,13-14H2

>  <PUBCHEM_IUPAC_INCHIKEY>  (29) 
CXJQOMGZPJXBQP-UHFFFAOYSA-N

>  <PUBCHEM_IUPAC_NAME>  (29) 
2-[[4-benzyl-5-(furan-2-yl)-1,2,4-triazol-3-yl]sulfanylmethyl]-1,3-benzothiazole

>  <PUBCHEM_IUPAC_OPENEYE_NAME>  (29) 
2-[[4-benzyl-5-(2-furyl)-1,2,4-triazol-3-yl]sulfanylmethyl]-1,3-benzothiazole

>  <PUBCHEM_IUPAC_SYSTEMATIC_NAME>  (29) 
2-[[5-(furan-2-yl)-4-(phenylmethyl)-1,2,4-triazol-3-yl]sulfanylmethyl]-1,3-benzothiazole

>  <PUBCHEM_IUPAC_TRADITIONAL_NAME>  (29) 
2-[[[4-benzyl-5-(2-furyl)-1,2,4-triazol-3-yl]thio]methyl]-1,3-benzothiazole

>  <PUBCHEM_MOLECULAR_FORMULA>  (29) 
C21H16N4OS2

>  <PUBCHEM_MOLECULAR_WEIGHT>  (29) 
404.50794

>  <PUBCHEM_MONOISOTOPIC_WEIGHT>  (29) 
404.076553

>  <PUBCHEM_OPENEYE_CAN_SMILES>  (29) 
C1=CC=C(C=C1)CN2C(=NN=C2SCC3=NC4=CC=CC=C4S3)C5=CC=CO5

>  <PUBCHEM_OPENEYE_ISO_SMILES>  (29) 
C1=CC=C(C=C1)CN2C(=NN=C2SCC3=NC4=CC=CC=C4S3)C5=CC=CO5

>  <PUBCHEM_TOTAL_CHARGE>  (29) 
0

>  <PUBCHEM_XLOGP3_AA>  (29) 
4.6

$$$$
Largest isolated from Written by BCL::WriteToMDL,2935588
     RDKit          2D

 47 48  0 47  0  0  0  0  0  0999 V2000
    3.5122   -1.6242    0.0000 O   0  0  0  0  0  0  0  0  0  0  0  0
    6.5021   -1.3779    0.0000 O   0  0  0  0  0  0  0  0  0  0  0  0
   -3.9625   -2.2400    0.0000 N   0  0  0  0  0  0  0  0  0  0  0  0
   -0.9726   -1.9937    0.0000 C   0  0  0  0  0  0  0  0  0  0  0  0
    0.5224   -1.8705    0.0000 C   0  0  0  0  0  0  0  0  0  0  0  0
   -2.4675   -2.1168    0.0000 C   0  0  0  0  0  0  0  0  0  0  0  0
    2.0173   -1.7474    0.0000 C   0  0  0  0  0  0  0  0  0  0  0  0
   -4.8166   -1.0069    0.0000 C   0  0  0  0  0  0  0  0  0  0  0  0
   -5.6707    0.2262    0.0000 C   0  0  0  0  0  0  0  0  0  0  0  0
    4.1530   -0.2680    0.0000 C   0  0  0  0  0  0  0  0  0  0  0  0
    5.6480   -0.1448    0.0000 C   0  0  0  0  0  0  0  0  0  0  0  0
   -5.0299    1.5824    0.0000 C   0  0  0  0  0  0  0  0  0  0  0  0
   -7.1656    0.1030    0.0000 C   0  0  0  0  0  0  0  0  0  0  0  0
    3.2989    0.9651    0.0000 C   0  0  0  0  0  0  0  0  0  0  0  0
    5.4347    2.4445    0.0000 C   0  0  0  0  0  0  0  0  0  0  0  0
    6.2888    1.2114    0.0000 C   0  0  0  0  0  0  0  0  0  0  0  0
    3.9397    2.3213    0.0000 C   0  0  0  0  0  0  0  0  0  0  0  0
   -5.8840    2.8155    0.0000 C   0  0  0  0  0  0  0  0  0  0  0  0
   -8.0197    1.3361    0.0000 C   0  0  0  0  0  0  0  0  0  0  0  0
   -7.3789    2.6923    0.0000 C   0  0  0  0  0  0  0  0  0  0  0  0
    6.0755    3.8007    0.0000 C   0  0  0  0  0  0  0  0  0  0  0  0
    5.8613   -2.7342    0.0000 C   0  0  0  0  0  0  0  0  0  0  0  0
   -1.0957   -0.4987    0.0000 H   0  0  0  0  0  0  0  0  0  0  0  0
   -0.8494   -3.4886    0.0000 H   0  0  0  0  0  0  0  0  0  0  0  0
    0.3992   -0.3756    0.0000 H   0  0  0  0  0  0  0  0  0  0  0  0
    0.6455   -3.3655    0.0000 H   0  0  0  0  0  0  0  0  0  0  0  0
   -2.3444   -3.6118    0.0000 H   0  0  0  0  0  0  0  0  0  0  0  0
   -2.5907   -0.6219    0.0000 H   0  0  0  0  0  0  0  0  0  0  0  0
    2.1404   -3.2423    0.0000 H   0  0  0  0  0  0  0  0  0  0  0  0
    1.8941   -0.2524    0.0000 H   0  0  0  0  0  0  0  0  0  0  0  0
   -4.6033   -3.5962    0.0000 H   0  0  0  0  0  0  0  0  0  0  0  0
   -6.0497   -1.8610    0.0000 H   0  0  0  0  0  0  0  0  0  0  0  0
   -3.5835   -0.1528    0.0000 H   0  0  0  0  0  0  0  0  0  0  0  0
   -3.5349    1.7056    0.0000 H   0  0  0  0  0  0  0  0  0  0  0  0
   -7.8064   -1.2532    0.0000 H   0  0  0  0  0  0  0  0  0  0  0  0
    1.8040    0.8419    0.0000 H   0  0  0  0  0  0  0  0  0  0  0  0
    7.7837    1.3345    0.0000 H   0  0  0  0  0  0  0  0  0  0  0  0
    3.0856    3.5544    0.0000 H   0  0  0  0  0  0  0  0  0  0  0  0
   -5.2432    4.1717    0.0000 H   0  0  0  0  0  0  0  0  0  0  0  0
   -9.5147    1.2130    0.0000 H   0  0  0  0  0  0  0  0  0  0  0  0
   -8.2330    3.9254    0.0000 H   0  0  0  0  0  0  0  0  0  0  0  0
    7.4317    3.1599    0.0000 H   0  0  0  0  0  0  0  0  0  0  0  0
    4.7193    4.4415    0.0000 H   0  0  0  0  0  0  0  0  0  0  0  0
    6.7163    5.1569    0.0000 H   0  0  0  0  0  0  0  0  0  0  0  0
    7.2175   -3.3750    0.0000 H   0  0  0  0  0  0  0  0  0  0  0  0
    4.5051   -2.0933    0.0000 H   0  0  0  0  0  0  0  0  0  0  0  0
    5.2205   -4.0904    0.0000 H   0  0  0  0  0  0  0  0  0  0  0  0
  1  7  1  0
  1 10  1  0
  2 11  1  0
  2 22  1  0
  3  6  1  0
  3  8  1  0
  3 31  1  0
  4  5  1  0
  4  6  1  0
  4 23  1  0
  4 24  1  0
  5  7  1  0
  5 25  1  0
  5 26  1  0
  6 27  1  0
  6 28  1  0
  7 29  1  0
  7 30  1  0
  8  9  1  0
  8 32  1  0
  8 33  1  0
  9 12  2  0
  9 13  1  0
 10 11  2  0
 10 14  1  0
 11 16  1  0
 12 18  1  0
 12 34  1  0
 13 19  2  0
 13 35  1  0
 14 17  2  0
 14 36  1  0
 15 16  2  0
 15 17  1  0
 15 21  1  0
 16 37  1  0
 17 38  1  0
 18 20  2  0
 18 39  1  0
 19 20  1  0
 19 40  1  0
 20 41  1  0
 21 42  1  0
 21 43  1  0
 21 44  1  0
 22 45  1  0
 22 46  1  0
 22 47  1  0
M  STY  8   1 DAT   2 DAT   3 DAT   4 DAT   5 DAT   6 DAT   7 DAT   8 DAT
M  STY  8   9 DAT  10 DAT  11 DAT  12 DAT  13 DAT  14 DAT  15 DAT  16 DAT
M  STY  8  17 DAT  18 DAT  19 DAT  20 DAT  21 DAT  22 DAT  23 DAT  24 DAT
M  STY  8  25 DAT  26 DAT  27 DAT  28 DAT  29 DAT  30 DAT  31 DAT  32 DAT
M  STY  8  33 DAT  34 DAT  35 DAT  36 DAT  37 DAT  38 DAT  39 DAT  40 DAT
M  STY  7  41 DAT  42 DAT  43 DAT  44 DAT  45 DAT  46 DAT  47 DAT
M  SAL   1  1   1
M  SED   1 [#8&h0]
M  SAL   2  1   2
M  SED   2 [#8&h0]
M  SAL   3  1   3
M  SED   3 [#7&h0]
M  SAL   4  1   4
M  SED   4 [#6&h0]
M  SAL   5  1   5
M  SED   5 [#6&h0]
M  SAL   6  1   6
M  SED   6 [#6&h0]
M  SAL   7  1   7
M  SED   7 [#6&h0]
M  SAL   8  1   8
M  SED   8 [#6&h0]
M  SAL   9  1   9
M  SED   9 [#6&h0]
M  SAL  10  1  10
M  SED  10 [#6&h0]
M  SAL  11  1  11
M  SED  11 [#6&h0]
M  SAL  12  1  12
M  SED  12 [#6&h0]
M  SAL  13  1  13
M  SED  13 [#6&h0]
M  SAL  14  1  14
M  SED  14 [#6&h0]
M  SAL  15  1  15
M  SED  15 [#6&h0]
M  SAL  16  1  16
M  SED  16 [#6&h0]
M  SAL  17  1  17
M  SED  17 [#6&h0]
M  SAL  18  1  18
M  SED  18 [#6&h0]
M  SAL  19  1  19
M  SED  19 [#6&h0]
M  SAL  20  1  20
M  SED  20 [#6&h0]
M  SAL  21  1  21
M  SED  21 [#6&h0]
M  SAL  22  1  22
M  SED  22 [#6&h0]
M  SAL  23  1  23
M  SED  23 [#1&h0]
M  SAL  24  1  24
M  SED  24 [#1&h0]
M  SAL  25  1  25
M  SED  25 [#1&h0]
M  SAL  26  1  26
M  SED  26 [#1&h0]
M  SAL  27  1  27
M  SED  27 [#1&h0]
M  SAL  28  1  28
M  SED  28 [#1&h0]
M  SAL  29  1  29
M  SED  29 [#1&h0]
M  SAL  30  1  30
M  SED  30 [#1&h0]
M  SAL  31  1  31
M  SED  31 [#1&h0]
M  SAL  32  1  32
M  SED  32 [#1&h0]
M  SAL  33  1  33
M  SED  33 [#1&h0]
M  SAL  34  1  34
M  SED  34 [#1&h0]
M  SAL  35  1  35
M  SED  35 [#1&h0]
M  SAL  36  1  36
M  SED  36 [#1&h0]
M  SAL  37  1  37
M  SED  37 [#1&h0]
M  SAL  38  1  38
M  SED  38 [#1&h0]
M  SAL  39  1  39
M  SED  39 [#1&h0]
M  SAL  40  1  40
M  SED  40 [#1&h0]
M  SAL  41  1  41
M  SED  41 [#1&h0]
M  SAL  42  1  42
M  SED  42 [#1&h0]
M  SAL  43  1  43
M  SED  43 [#1&h0]
M  SAL  44  1  44
M  SED  44 [#1&h0]
M  SAL  45  1  45
M  SED  45 [#1&h0]
M  SAL  46  1  46
M  SED  46 [#1&h0]
M  SAL  47  1  47
M  SED  47 [#1&h0]
M  END
>  <Activity>  (30) 
0.01

>  <Mapped(file=2032.csv.activities,property=Cached(PUBCHEM_COMPOUND_CID))>  (30) 
100

>  <MatchIndices>  (30) 
96 

>  <PUBCHEM_ATOM_DEF_STEREO_COUNT>  (30) 
0

>  <PUBCHEM_ATOM_UDEF_STEREO_COUNT>  (30) 
0

>  <PUBCHEM_BONDANNOTATIONS>  (30) 
13  16  8
13  17  8
14  15  8
14  18  8
15  20  8
16  22  8
17  23  8
18  21  8
19  20  8
19  21  8
22  24  8
23  24  8

>  <PUBCHEM_BOND_DEF_STEREO_COUNT>  (30) 
0

>  <PUBCHEM_BOND_UDEF_STEREO_COUNT>  (30) 
0

>  <PUBCHEM_CACTVS_COMPLEXITY>  (30) 
350

>  <PUBCHEM_CACTVS_HBOND_ACCEPTOR>  (30) 
7

>  <PUBCHEM_CACTVS_HBOND_DONOR>  (30) 
3

>  <PUBCHEM_CACTVS_ROTATABLE_BOND>  (30) 
10

>  <PUBCHEM_CACTVS_SUBSKEYS>  (30) 
AAADceB6OAAAAAAAAAAAAAAAAAAAAAAAAAAwYAAAAAAAAAABQAAAHgAQCAAADAThmAYyDoLABgCIAiDSCAKCCAAgIAAIiIBOjIgNJiKEsRuGOCrk0BGLqAewwBAOIAABAAAAQABAAAIAAACAAAAAAAAAAA==

>  <PUBCHEM_CACTVS_TAUTO_COUNT>  (30) 
1

>  <PUBCHEM_CACTVS_TPSA>  (30) 
105

>  <PUBCHEM_COMPONENT_COUNT>  (30) 
2

>  <PUBCHEM_COMPOUND_CANONICALIZED>  (30) 
1

>  <PUBCHEM_COMPOUND_CID>  (30) 
2935588

>  <PUBCHEM_COORDINATE_TYPE>  (30) 
1
5
255

>  <PUBCHEM_EXACT_MASS>  (30) 
389.183838

>  <PUBCHEM_HEAVY_ATOM_COUNT>  (30) 
28

>  <PUBCHEM_ISOTOPIC_ATOM_COUNT>  (30) 
0

>  <PUBCHEM_IUPAC_CAS_NAME>  (30) 
4-(2-methoxy-4-methylphenoxy)-N-(phenylmethyl)-1-butanamine; oxalic acid

>  <PUBCHEM_IUPAC_INCHI>  (30) 
InChI=1S/C19H25NO2.C2H2O4/c1-16-10-11-18(19(14-16)21-2)22-13-7-6-12-20-15-17-8-4-3-5-9-17;3-1(4)2(5)6/h3-5,8-11,14,20H,6-7,12-13,15H2,1-2H3;(H,3,4)(H,5,6)

>  <PUBCHEM_IUPAC_INCHIKEY>  (30) 
IKRYGEAVYVBCBH-UHFFFAOYSA-N

>  <PUBCHEM_IUPAC_NAME>  (30) 
N-benzyl-4-(2-methoxy-4-methylphenoxy)butan-1-amine; oxalic acid

>  <PUBCHEM_IUPAC_OPENEYE_NAME>  (30) 
N-benzyl-4-(2-methoxy-4-methyl-phenoxy)butan-1-amine; oxalic acid

>  <PUBCHEM_IUPAC_SYSTEMATIC_NAME>  (30) 
ethanedioic acid; 4-(2-methoxy-4-methyl-phenoxy)-N-(phenylmethyl)butan-1-amine

>  <PUBCHEM_IUPAC_TRADITIONAL_NAME>  (30) 
benzyl-[4-(2-methoxy-4-methyl-phenoxy)butyl]amine; oxalic acid

>  <PUBCHEM_MOLECULAR_FORMULA>  (30) 
C21H27NO6

>  <PUBCHEM_MOLECULAR_WEIGHT>  (30) 
389.44218

>  <PUBCHEM_MONOISOTOPIC_WEIGHT>  (30) 
389.183838

>  <PUBCHEM_OPENEYE_CAN_SMILES>  (30) 
CC1=CC(=C(C=C1)OCCCCNCC2=CC=CC=C2)OC.C(=O)(C(=O)O)O

>  <PUBCHEM_OPENEYE_ISO_SMILES>  (30) 
CC1=CC(=C(C=C1)OCCCCNCC2=CC=CC=C2)OC.C(=O)(C(=O)O)O

>  <PUBCHEM_TOTAL_CHARGE>  (30) 
0

$$$$
Largest isolated from Written by BCL::WriteToMDL,20118
     RDKit          2D

 37 38  0 37  0  0  0  0  0  0999 V2000
   -3.4031    2.6398    0.0000 O   0  0  0  0  0  0  0  0  0  0  0  0
   -0.5913   -0.8737    0.0000 N   0  0  0  0  0  0  0  0  0  0  0  0
   -1.5286    0.2975    0.0000 C   0  0  0  0  0  0  0  0  0  0  0  0
   -2.4658    1.4686    0.0000 C   0  0  0  0  0  0  0  0  0  0  0  0
    0.8915   -0.6476    0.0000 C   0  0  0  0  0  0  0  0  0  0  0  0
    2.3744   -0.4215    0.0000 C   0  0  0  0  0  0  0  0  0  0  0  0
   -3.6370    0.5314    0.0000 C   0  0  0  0  0  0  0  0  0  0  0  0
    3.8572   -0.1954    0.0000 C   0  0  0  0  0  0  0  0  0  0  0  0
   -5.0342    1.0770    0.0000 C   0  0  0  0  0  0  0  0  0  0  0  0
   -3.4109   -0.9515    0.0000 C   0  0  0  0  0  0  0  0  0  0  0  0
    4.7945   -1.3665    0.0000 C   0  0  0  0  0  0  0  0  0  0  0  0
    4.4029    1.2019    0.0000 C   0  0  0  0  0  0  0  0  0  0  0  0
   -6.2054    0.1398    0.0000 C   0  0  0  0  0  0  0  0  0  0  0  0
   -4.5820   -1.8887    0.0000 C   0  0  0  0  0  0  0  0  0  0  0  0
    6.2773   -1.1404    0.0000 C   0  0  0  0  0  0  0  0  0  0  0  0
    5.8857    1.4280    0.0000 C   0  0  0  0  0  0  0  0  0  0  0  0
   -5.9793   -1.3431    0.0000 C   0  0  0  0  0  0  0  0  0  0  0  0
    6.8230    0.2568    0.0000 C   0  0  0  0  0  0  0  0  0  0  0  0
   -0.3574    1.2347    0.0000 H   0  0  0  0  0  0  0  0  0  0  0  0
   -2.0657   -0.4068    0.0000 H   0  0  0  0  0  0  0  0  0  0  0  0
   -1.2947    2.4059    0.0000 H   0  0  0  0  0  0  0  0  0  0  0  0
    1.1176   -2.1304    0.0000 H   0  0  0  0  0  0  0  0  0  0  0  0
    0.6654    0.8353    0.0000 H   0  0  0  0  0  0  0  0  0  0  0  0
    2.6005   -1.9043    0.0000 H   0  0  0  0  0  0  0  0  0  0  0  0
    2.1483    1.0614    0.0000 H   0  0  0  0  0  0  0  0  0  0  0  0
   -1.1370   -2.2709    0.0000 H   0  0  0  0  0  0  0  0  0  0  0  0
   -5.2603    2.5599    0.0000 H   0  0  0  0  0  0  0  0  0  0  0  0
   -2.5858   -1.2737    0.0000 H   0  0  0  0  0  0  0  0  0  0  0  0
    4.2489   -2.7638    0.0000 H   0  0  0  0  0  0  0  0  0  0  0  0
    3.4656    2.3730    0.0000 H   0  0  0  0  0  0  0  0  0  0  0  0
   -2.8574    4.0370    0.0000 H   0  0  0  0  0  0  0  0  0  0  0  0
   -7.6026    0.6854    0.0000 H   0  0  0  0  0  0  0  0  0  0  0  0
   -4.3559   -3.3716    0.0000 H   0  0  0  0  0  0  0  0  0  0  0  0
    7.2146   -2.3115    0.0000 H   0  0  0  0  0  0  0  0  0  0  0  0
    6.4314    2.8252    0.0000 H   0  0  0  0  0  0  0  0  0  0  0  0
   -7.1504   -2.2803    0.0000 H   0  0  0  0  0  0  0  0  0  0  0  0
    8.3058    0.4829    0.0000 H   0  0  0  0  0  0  0  0  0  0  0  0
  1  4  1  0
  1 31  1  0
  2  3  1  0
  2  5  1  0
  2 26  1  0
  3  4  1  0
  3 19  1  0
  3 20  1  0
  4  7  1  0
  4 21  1  6
  5  6  1  0
  5 22  1  0
  5 23  1  0
  6  8  1  0
  6 24  1  0
  6 25  1  0
  7  9  2  0
  7 10  1  0
  8 11  2  0
  8 12  1  0
  9 13  1  0
  9 27  1  0
 10 14  2  0
 10 28  1  0
 11 15  1  0
 11 29  1  0
 12 16  2  0
 12 30  1  0
 13 17  2  0
 13 32  1  0
 14 17  1  0
 14 33  1  0
 15 18  2  0
 15 34  1  0
 16 18  1  0
 16 35  1  0
 17 36  1  0
 18 37  1  0
M  STY  8   1 DAT   2 DAT   3 DAT   4 DAT   5 DAT   6 DAT   7 DAT   8 DAT
M  STY  8   9 DAT  10 DAT  11 DAT  12 DAT  13 DAT  14 DAT  15 DAT  16 DAT
M  STY  8  17 DAT  18 DAT  19 DAT  20 DAT  21 DAT  22 DAT  23 DAT  24 DAT
M  STY  8  25 DAT  26 DAT  27 DAT  28 DAT  29 DAT  30 DAT  31 DAT  32 DAT
M  STY  5  33 DAT  34 DAT  35 DAT  36 DAT  37 DAT
M  SAL   1  1   1
M  SED   1 [#8&h0]
M  SAL   2  1   2
M  SED   2 [#7&h0]
M  SAL   3  1   3
M  SED   3 [#6&h0]
M  SAL   4  1   4
M  SED   4 [#6&h0]
M  SAL   5  1   5
M  SED   5 [#6&h0]
M  SAL   6  1   6
M  SED   6 [#6&h0]
M  SAL   7  1   7
M  SED   7 [#6&h0]
M  SAL   8  1   8
M  SED   8 [#6&h0]
M  SAL   9  1   9
M  SED   9 [#6&h0]
M  SAL  10  1  10
M  SED  10 [#6&h0]
M  SAL  11  1  11
M  SED  11 [#6&h0]
M  SAL  12  1  12
M  SED  12 [#6&h0]
M  SAL  13  1  13
M  SED  13 [#6&h0]
M  SAL  14  1  14
M  SED  14 [#6&h0]
M  SAL  15  1  15
M  SED  15 [#6&h0]
M  SAL  16  1  16
M  SED  16 [#6&h0]
M  SAL  17  1  17
M  SED  17 [#6&h0]
M  SAL  18  1  18
M  SED  18 [#6&h0]
M  SAL  19  1  19
M  SED  19 [#1&h0]
M  SAL  20  1  20
M  SED  20 [#1&h0]
M  SAL  21  1  21
M  SED  21 [#1&h0]
M  SAL  22  1  22
M  SED  22 [#1&h0]
M  SAL  23  1  23
M  SED  23 [#1&h0]
M  SAL  24  1  24
M  SED  24 [#1&h0]
M  SAL  25  1  25
M  SED  25 [#1&h0]
M  SAL  26  1  26
M  SED  26 [#1&h0]
M  SAL  27  1  27
M  SED  27 [#1&h0]
M  SAL  28  1  28
M  SED  28 [#1&h0]
M  SAL  29  1  29
M  SED  29 [#1&h0]
M  SAL  30  1  30
M  SED  30 [#1&h0]
M  SAL  31  1  31
M  SED  31 [#1&h0]
M  SAL  32  1  32
M  SED  32 [#1&h0]
M  SAL  33  1  33
M  SED  33 [#1&h0]
M  SAL  34  1  34
M  SED  34 [#1&h0]
M  SAL  35  1  35
M  SED  35 [#1&h0]
M  SAL  36  1  36
M  SED  36 [#1&h0]
M  SAL  37  1  37
M  SED  37 [#1&h0]
M  END
>  <Activity>  (31) 
0.01

>  <Mapped(file=2032.csv.activities,property=Cached(PUBCHEM_COMPOUND_CID))>  (31) 
100

>  <MatchIndices>  (31) 
56 

>  <PUBCHEM_ATOM_DEF_STEREO_COUNT>  (31) 
0

>  <PUBCHEM_ATOM_UDEF_STEREO_COUNT>  (31) 
1

>  <PUBCHEM_BONDANNOTATIONS>  (31) 
10  14  8
11  15  8
12  16  8
13  17  8
14  17  8
15  18  8
16  18  8
4  21  3
7  10  8
7  9  8
8  11  8
8  12  8
9  13  8

>  <PUBCHEM_BOND_DEF_STEREO_COUNT>  (31) 
0

>  <PUBCHEM_BOND_UDEF_STEREO_COUNT>  (31) 
0

>  <PUBCHEM_CACTVS_COMPLEXITY>  (31) 
207

>  <PUBCHEM_CACTVS_HBOND_ACCEPTOR>  (31) 
2

>  <PUBCHEM_CACTVS_HBOND_DONOR>  (31) 
2

>  <PUBCHEM_CACTVS_ROTATABLE_BOND>  (31) 
6

>  <PUBCHEM_CACTVS_SUBSKEYS>  (31) 
AAADceB6IAAAAAAAAAAAAAAAAAAAAAAAAAAwYAAAAAAAAAABQAAAHgAQCAAADBThmAYwAILAAgCAAiBCAAACAAAgAAAIiIAICIgKNiKAkRGEcAAk0AGYmAeQwKAOAAAAAAAAAAAAAAAAAAAAAAAAAAAAAA==

>  <PUBCHEM_CACTVS_TAUTO_COUNT>  (31) 
1

>  <PUBCHEM_CACTVS_TPSA>  (31) 
32.3

>  <PUBCHEM_COMPONENT_COUNT>  (31) 
1

>  <PUBCHEM_COMPOUND_CANONICALIZED>  (31) 
1

>  <PUBCHEM_COMPOUND_CID>  (31) 
20118

>  <PUBCHEM_COORDINATE_TYPE>  (31) 
1
5
255

>  <PUBCHEM_EXACT_MASS>  (31) 
241.146664

>  <PUBCHEM_HEAVY_ATOM_COUNT>  (31) 
18

>  <PUBCHEM_ISOTOPIC_ATOM_COUNT>  (31) 
0

>  <PUBCHEM_IUPAC_CAS_NAME>  (31) 
1-phenyl-2-(2-phenylethylamino)ethanol

>  <PUBCHEM_IUPAC_INCHI>  (31) 
InChI=1S/C16H19NO/c18-16(15-9-5-2-6-10-15)13-17-12-11-14-7-3-1-4-8-14/h1-10,16-18H,11-13H2

>  <PUBCHEM_IUPAC_INCHIKEY>  (31) 
LXTNZWGUMORTKT-UHFFFAOYSA-N

>  <PUBCHEM_IUPAC_NAME>  (31) 
1-phenyl-2-(2-phenylethylamino)ethanol

>  <PUBCHEM_IUPAC_OPENEYE_NAME>  (31) 
1-phenyl-2-(2-phenylethylamino)ethanol

>  <PUBCHEM_IUPAC_SYSTEMATIC_NAME>  (31) 
1-phenyl-2-(2-phenylethylamino)ethanol

>  <PUBCHEM_IUPAC_TRADITIONAL_NAME>  (31) 
2-(phenethylamino)-1-phenyl-ethanol

>  <PUBCHEM_MOLECULAR_FORMULA>  (31) 
C16H19NO

>  <PUBCHEM_MOLECULAR_WEIGHT>  (31) 
241.32816

>  <PUBCHEM_MONOISOTOPIC_WEIGHT>  (31) 
241.146664

>  <PUBCHEM_OPENEYE_CAN_SMILES>  (31) 
C1=CC=C(C=C1)CCNCC(C2=CC=CC=C2)O

>  <PUBCHEM_OPENEYE_ISO_SMILES>  (31) 
C1=CC=C(C=C1)CCNCC(C2=CC=CC=C2)O

>  <PUBCHEM_TOTAL_CHARGE>  (31) 
0

>  <PUBCHEM_XLOGP3_AA>  (31) 
2.6

$$$$
Largest isolated from Written by BCL::WriteToMDL,6602913
     RDKit          2D

 33 35  0 33  0  0  0  0  0  0999 V2000
   -5.4212   -0.7769    0.0000 O   0  0  0  0  0  0  0  0  0  0  0  0
    0.3720    0.7848    0.0000 N   0  0  0  0  0  0  0  0  0  0  0  0
    3.5588   -2.3924    0.0000 N   0  0  0  0  0  0  0  0  0  0  0  0
    2.8825    0.1162    0.0000 C   0  0  0  0  0  0  0  0  0  0  0  0
    1.4342   -0.2743    0.0000 C   0  0  0  0  0  0  0  0  0  0  0  0
    3.9448   -0.9429    0.0000 C   0  0  0  0  0  0  0  0  0  0  0  0
   -1.0763    0.3944    0.0000 C   0  0  0  0  0  0  0  0  0  0  0  0
    3.2686    1.5656    0.0000 C   0  0  0  0  0  0  0  0  0  0  0  0
    1.0482   -1.7237    0.0000 C   0  0  0  0  0  0  0  0  0  0  0  0
    5.3931   -0.5525    0.0000 C   0  0  0  0  0  0  0  0  0  0  0  0
   -2.1386    1.4534    0.0000 C   0  0  0  0  0  0  0  0  0  0  0  0
   -1.4624   -1.0551    0.0000 C   0  0  0  0  0  0  0  0  0  0  0  0
    4.7168    1.9561    0.0000 C   0  0  0  0  0  0  0  0  0  0  0  0
    2.1105   -2.7828    0.0000 C   0  0  0  0  0  0  0  0  0  0  0  0
    5.7791    0.8970    0.0000 C   0  0  0  0  0  0  0  0  0  0  0  0
   -3.9729   -0.3865    0.0000 C   0  0  0  0  0  0  0  0  0  0  0  0
   -3.5869    1.0630    0.0000 C   0  0  0  0  0  0  0  0  0  0  0  0
   -2.9107   -1.4455    0.0000 C   0  0  0  0  0  0  0  0  0  0  0  0
   -6.4835    0.2821    0.0000 C   0  0  0  0  0  0  0  0  0  0  0  0
    0.7580    2.2343    0.0000 H   0  0  0  0  0  0  0  0  0  0  0  0
    2.2063    2.6247    0.0000 H   0  0  0  0  0  0  0  0  0  0  0  0
    0.1363   -2.0938    0.0000 H   0  0  0  0  0  0  0  0  0  0  0  0
    6.4554   -1.6115    0.0000 H   0  0  0  0  0  0  0  0  0  0  0  0
   -1.7526    2.9029    0.0000 H   0  0  0  0  0  0  0  0  0  0  0  0
   -0.8553   -1.8297    0.0000 H   0  0  0  0  0  0  0  0  0  0  0  0
    5.1029    3.4055    0.0000 H   0  0  0  0  0  0  0  0  0  0  0  0
    1.7244   -4.2323    0.0000 H   0  0  0  0  0  0  0  0  0  0  0  0
    7.2274    1.2875    0.0000 H   0  0  0  0  0  0  0  0  0  0  0  0
   -4.6492    2.1220    0.0000 H   0  0  0  0  0  0  0  0  0  0  0  0
   -3.2967   -2.8950    0.0000 H   0  0  0  0  0  0  0  0  0  0  0  0
   -7.5426   -0.7801    0.0000 H   0  0  0  0  0  0  0  0  0  0  0  0
   -5.4245    1.3444    0.0000 H   0  0  0  0  0  0  0  0  0  0  0  0
   -7.5458    1.3412    0.0000 H   0  0  0  0  0  0  0  0  0  0  0  0
  1 16  1  0
  1 19  1  0
  2  5  1  0
  2  7  1  0
  2 20  1  0
  3  6  2  0
  3 14  1  0
  4  5  2  0
  4  6  1  0
  4  8  1  0
  5  9  1  0
  6 10  1  0
  7 11  2  0
  7 12  1  0
  8 13  2  0
  8 21  1  0
  9 14  2  0
  9 22  1  0
 10 15  2  0
 10 23  1  0
 11 17  1  0
 11 24  1  0
 12 18  2  0
 12 25  1  0
 13 15  1  0
 13 26  1  0
 14 27  1  0
 15 28  1  0
 16 17  2  0
 16 18  1  0
 17 29  1  0
 18 30  1  0
 19 31  1  0
 19 32  1  0
 19 33  1  0
M  STY  8   1 DAT   2 DAT   3 DAT   4 DAT   5 DAT   6 DAT   7 DAT   8 DAT
M  STY  8   9 DAT  10 DAT  11 DAT  12 DAT  13 DAT  14 DAT  15 DAT  16 DAT
M  STY  8  17 DAT  18 DAT  19 DAT  20 DAT  21 DAT  22 DAT  23 DAT  24 DAT
M  STY  8  25 DAT  26 DAT  27 DAT  28 DAT  29 DAT  30 DAT  31 DAT  32 DAT
M  STY  1  33 DAT
M  SAL   1  1   1
M  SED   1 [#8&h0]
M  SAL   2  1   2
M  SED   2 [#7&h0]
M  SAL   3  1   3
M  SED   3 [#7&h0]
M  SAL   4  1   4
M  SED   4 [#6&h0]
M  SAL   5  1   5
M  SED   5 [#6&h0]
M  SAL   6  1   6
M  SED   6 [#6&h0]
M  SAL   7  1   7
M  SED   7 [#6&h0]
M  SAL   8  1   8
M  SED   8 [#6&h0]
M  SAL   9  1   9
M  SED   9 [#6&h0]
M  SAL  10  1  10
M  SED  10 [#6&h0]
M  SAL  11  1  11
M  SED  11 [#6&h0]
M  SAL  12  1  12
M  SED  12 [#6&h0]
M  SAL  13  1  13
M  SED  13 [#6&h0]
M  SAL  14  1  14
M  SED  14 [#6&h0]
M  SAL  15  1  15
M  SED  15 [#6&h0]
M  SAL  16  1  16
M  SED  16 [#6&h0]
M  SAL  17  1  17
M  SED  17 [#6&h0]
M  SAL  18  1  18
M  SED  18 [#6&h0]
M  SAL  19  1  19
M  SED  19 [#6&h0]
M  SAL  20  1  20
M  SED  20 [#1&h0]
M  SAL  21  1  21
M  SED  21 [#1&h0]
M  SAL  22  1  22
M  SED  22 [#1&h0]
M  SAL  23  1  23
M  SED  23 [#1&h0]
M  SAL  24  1  24
M  SED  24 [#1&h0]
M  SAL  25  1  25
M  SED  25 [#1&h0]
M  SAL  26  1  26
M  SED  26 [#1&h0]
M  SAL  27  1  27
M  SED  27 [#1&h0]
M  SAL  28  1  28
M  SED  28 [#1&h0]
M  SAL  29  1  29
M  SED  29 [#1&h0]
M  SAL  30  1  30
M  SED  30 [#1&h0]
M  SAL  31  1  31
M  SED  31 [#1&h0]
M  SAL  32  1  32
M  SED  32 [#1&h0]
M  SAL  33  1  33
M  SED  33 [#1&h0]
M  END
>  <Activity>  (32) 
0.01

>  <Mapped(file=2032.csv.activities,property=Cached(PUBCHEM_COMPOUND_CID))>  (32) 
100

>  <MatchIndices>  (32) 
5 

>  <PUBCHEM_ATOM_DEF_STEREO_COUNT>  (32) 
0

>  <PUBCHEM_ATOM_UDEF_STEREO_COUNT>  (32) 
0

>  <PUBCHEM_BONDANNOTATIONS>  (32) 
10  15  8
11  16  8
12  18  8
13  19  8
14  16  8
17  18  8
17  19  8
4  15  8
4  7  8
5  6  8
5  7  8
5  9  8
6  10  8
7  11  8
8  12  8
8  13  8
9  14  8

>  <PUBCHEM_BOND_DEF_STEREO_COUNT>  (32) 
0

>  <PUBCHEM_BOND_UDEF_STEREO_COUNT>  (32) 
0

>  <PUBCHEM_CACTVS_COMPLEXITY>  (32) 
276

>  <PUBCHEM_CACTVS_HBOND_ACCEPTOR>  (32) 
3

>  <PUBCHEM_CACTVS_HBOND_DONOR>  (32) 
2

>  <PUBCHEM_CACTVS_ROTATABLE_BOND>  (32) 
3

>  <PUBCHEM_CACTVS_SUBSKEYS>  (32) 
AAADccB7IAAEAAAAAAAAAAAAAAAAAAAAAAA8YIAAAAAAAACx9AAAHgAQAAAADAzBngY+xvLIFACgAzRnRACCiCAxIiAI2CA+bJgMJuLE8duENChk0BHI6AewwIAOAEAAAAACAAAAgAAAAAQAAAAAAAAAAA==

>  <PUBCHEM_CACTVS_TAUTO_COUNT>  (32) 
3

>  <PUBCHEM_CACTVS_TPSA>  (32) 
34.2

>  <PUBCHEM_COMPONENT_COUNT>  (32) 
2

>  <PUBCHEM_COMPOUND_CANONICALIZED>  (32) 
1

>  <PUBCHEM_COMPOUND_CID>  (32) 
6602913

>  <PUBCHEM_COORDINATE_TYPE>  (32) 
1
5
255

>  <PUBCHEM_EXACT_MASS>  (32) 
286.087291

>  <PUBCHEM_HEAVY_ATOM_COUNT>  (32) 
20

>  <PUBCHEM_ISOTOPIC_ATOM_COUNT>  (32) 
0

>  <PUBCHEM_IUPAC_CAS_NAME>  (32) 
N-(4-methoxyphenyl)-4-quinolinamine hydrochloride

>  <PUBCHEM_IUPAC_INCHI>  (32) 
InChI=1S/C16H14N2O.ClH/c1-19-13-8-6-12(7-9-13)18-16-10-11-17-15-5-3-2-4-14(15)16;/h2-11H,1H3,(H,17,18);1H

>  <PUBCHEM_IUPAC_INCHIKEY>  (32) 
ZBFCUPKYLZLALK-UHFFFAOYSA-N

>  <PUBCHEM_IUPAC_NAME>  (32) 
N-(4-methoxyphenyl)quinolin-4-amine hydrochloride

>  <PUBCHEM_IUPAC_OPENEYE_NAME>  (32) 
N-(4-methoxyphenyl)quinolin-4-amine hydrochloride

>  <PUBCHEM_IUPAC_SYSTEMATIC_NAME>  (32) 
N-(4-methoxyphenyl)quinolin-4-amine hydrochloride

>  <PUBCHEM_IUPAC_TRADITIONAL_NAME>  (32) 
(4-methoxyphenyl)-(4-quinolyl)amine hydrochloride

>  <PUBCHEM_MOLECULAR_FORMULA>  (32) 
C16H15ClN2O

>  <PUBCHEM_MOLECULAR_WEIGHT>  (32) 
286.7561

>  <PUBCHEM_MONOISOTOPIC_WEIGHT>  (32) 
286.087291

>  <PUBCHEM_OPENEYE_CAN_SMILES>  (32) 
COC1=CC=C(C=C1)NC2=CC=NC3=CC=CC=C32.Cl

>  <PUBCHEM_OPENEYE_ISO_SMILES>  (32) 
COC1=CC=C(C=C1)NC2=CC=NC3=CC=CC=C32.Cl

>  <PUBCHEM_TOTAL_CHARGE>  (32) 
0

$$$$
Largest isolated from Written by BCL::WriteToMDL,2984034
     RDKit          2D

 40 41  0 40  0  0  0  0  0  0999 V2000
    2.1503    4.6897    0.0000 Cl  0  0  0  0  0  0  0  0  0  0  0  0
   -8.8633    0.6960    0.0000 F   0  0  0  0  0  0  0  0  0  0  0  0
    3.8304   -1.0702    0.0000 O   0  0  0  0  0  0  0  0  0  0  0  0
   -0.1208   -1.4415    0.0000 N   0  0  0  0  0  0  0  0  0  0  0  0
   -1.5779   -1.0852    0.0000 C   0  0  0  0  0  0  0  0  0  0  0  0
   -3.0350   -0.7290    0.0000 C   0  0  0  0  0  0  0  0  0  0  0  0
    0.9163   -0.3577    0.0000 C   0  0  0  0  0  0  0  0  0  0  0  0
    1.9533    0.7260    0.0000 C   0  0  0  0  0  0  0  0  0  0  0  0
   -4.4921   -0.3727    0.0000 C   0  0  0  0  0  0  0  0  0  0  0  0
    3.4104    0.3697    0.0000 C   0  0  0  0  0  0  0  0  0  0  0  0
    1.5333    2.1660    0.0000 C   0  0  0  0  0  0  0  0  0  0  0  0
   -5.5291   -1.4565    0.0000 C   0  0  0  0  0  0  0  0  0  0  0  0
   -4.9121    1.0672    0.0000 C   0  0  0  0  0  0  0  0  0  0  0  0
    4.4475    1.4535    0.0000 C   0  0  0  0  0  0  0  0  0  0  0  0
    2.5704    3.2497    0.0000 C   0  0  0  0  0  0  0  0  0  0  0  0
    4.0274    2.8935    0.0000 C   0  0  0  0  0  0  0  0  0  0  0  0
   -6.9862   -1.1002    0.0000 C   0  0  0  0  0  0  0  0  0  0  0  0
   -6.3692    1.4235    0.0000 C   0  0  0  0  0  0  0  0  0  0  0  0
    5.2875   -1.4265    0.0000 C   0  0  0  0  0  0  0  0  0  0  0  0
   -7.4062    0.3398    0.0000 C   0  0  0  0  0  0  0  0  0  0  0  0
    6.7446   -1.7827    0.0000 C   0  0  0  0  0  0  0  0  0  0  0  0
   -1.9341   -2.5423    0.0000 H   0  0  0  0  0  0  0  0  0  0  0  0
   -1.2216    0.3718    0.0000 H   0  0  0  0  0  0  0  0  0  0  0  0
   -3.3912   -2.1861    0.0000 H   0  0  0  0  0  0  0  0  0  0  0  0
   -2.6787    0.7281    0.0000 H   0  0  0  0  0  0  0  0  0  0  0  0
   -0.1675    0.6793    0.0000 H   0  0  0  0  0  0  0  0  0  0  0  0
    2.0000   -1.3948    0.0000 H   0  0  0  0  0  0  0  0  0  0  0  0
    0.2992   -2.8815    0.0000 H   0  0  0  0  0  0  0  0  0  0  0  0
    0.0762    2.5222    0.0000 H   0  0  0  0  0  0  0  0  0  0  0  0
   -5.1091   -2.8965    0.0000 H   0  0  0  0  0  0  0  0  0  0  0  0
   -3.8750    2.1510    0.0000 H   0  0  0  0  0  0  0  0  0  0  0  0
    5.9045    1.0972    0.0000 H   0  0  0  0  0  0  0  0  0  0  0  0
    5.0645    3.9772    0.0000 H   0  0  0  0  0  0  0  0  0  0  0  0
   -8.0233   -2.1840    0.0000 H   0  0  0  0  0  0  0  0  0  0  0  0
   -6.7892    2.8635    0.0000 H   0  0  0  0  0  0  0  0  0  0  0  0
    5.6437    0.0306    0.0000 H   0  0  0  0  0  0  0  0  0  0  0  0
    4.9312   -2.8836    0.0000 H   0  0  0  0  0  0  0  0  0  0  0  0
    7.1008   -0.3257    0.0000 H   0  0  0  0  0  0  0  0  0  0  0  0
    6.3883   -3.2398    0.0000 H   0  0  0  0  0  0  0  0  0  0  0  0
    8.2017   -2.1390    0.0000 H   0  0  0  0  0  0  0  0  0  0  0  0
  1 15  1  0
  2 20  1  0
  3 10  1  0
  3 19  1  0
  4  5  1  0
  4  7  1  0
  4 28  1  0
  5  6  1  0
  5 22  1  0
  5 23  1  0
  6  9  1  0
  6 24  1  0
  6 25  1  0
  7  8  1  0
  7 26  1  0
  7 27  1  0
  8 10  2  0
  8 11  1  0
  9 12  2  0
  9 13  1  0
 10 14  1  0
 11 15  2  0
 11 29  1  0
 12 17  1  0
 12 30  1  0
 13 18  2  0
 13 31  1  0
 14 16  2  0
 14 32  1  0
 15 16  1  0
 16 33  1  0
 17 20  2  0
 17 34  1  0
 18 20  1  0
 18 35  1  0
 19 21  1  0
 19 36  1  0
 19 37  1  0
 21 38  1  0
 21 39  1  0
 21 40  1  0
M  STY  8   1 DAT   2 DAT   3 DAT   4 DAT   5 DAT   6 DAT   7 DAT   8 DAT
M  STY  8   9 DAT  10 DAT  11 DAT  12 DAT  13 DAT  14 DAT  15 DAT  16 DAT
M  STY  8  17 DAT  18 DAT  19 DAT  20 DAT  21 DAT  22 DAT  23 DAT  24 DAT
M  STY  8  25 DAT  26 DAT  27 DAT  28 DAT  29 DAT  30 DAT  31 DAT  32 DAT
M  STY  8  33 DAT  34 DAT  35 DAT  36 DAT  37 DAT  38 DAT  39 DAT  40 DAT
M  SAL   1  1   1
M  SED   1 [#17&h0]
M  SAL   2  1   2
M  SED   2 [#9&h0]
M  SAL   3  1   3
M  SED   3 [#8&h0]
M  SAL   4  1   4
M  SED   4 [#7&h0]
M  SAL   5  1   5
M  SED   5 [#6&h0]
M  SAL   6  1   6
M  SED   6 [#6&h0]
M  SAL   7  1   7
M  SED   7 [#6&h0]
M  SAL   8  1   8
M  SED   8 [#6&h0]
M  SAL   9  1   9
M  SED   9 [#6&h0]
M  SAL  10  1  10
M  SED  10 [#6&h0]
M  SAL  11  1  11
M  SED  11 [#6&h0]
M  SAL  12  1  12
M  SED  12 [#6&h0]
M  SAL  13  1  13
M  SED  13 [#6&h0]
M  SAL  14  1  14
M  SED  14 [#6&h0]
M  SAL  15  1  15
M  SED  15 [#6&h0]
M  SAL  16  1  16
M  SED  16 [#6&h0]
M  SAL  17  1  17
M  SED  17 [#6&h0]
M  SAL  18  1  18
M  SED  18 [#6&h0]
M  SAL  19  1  19
M  SED  19 [#6&h0]
M  SAL  20  1  20
M  SED  20 [#6&h0]
M  SAL  21  1  21
M  SED  21 [#6&h0]
M  SAL  22  1  22
M  SED  22 [#1&h0]
M  SAL  23  1  23
M  SED  23 [#1&h0]
M  SAL  24  1  24
M  SED  24 [#1&h0]
M  SAL  25  1  25
M  SED  25 [#1&h0]
M  SAL  26  1  26
M  SED  26 [#1&h0]
M  SAL  27  1  27
M  SED  27 [#1&h0]
M  SAL  28  1  28
M  SED  28 [#1&h0]
M  SAL  29  1  29
M  SED  29 [#1&h0]
M  SAL  30  1  30
M  SED  30 [#1&h0]
M  SAL  31  1  31
M  SED  31 [#1&h0]
M  SAL  32  1  32
M  SED  32 [#1&h0]
M  SAL  33  1  33
M  SED  33 [#1&h0]
M  SAL  34  1  34
M  SED  34 [#1&h0]
M  SAL  35  1  35
M  SED  35 [#1&h0]
M  SAL  36  1  36
M  SED  36 [#1&h0]
M  SAL  37  1  37
M  SED  37 [#1&h0]
M  SAL  38  1  38
M  SED  38 [#1&h0]
M  SAL  39  1  39
M  SED  39 [#1&h0]
M  SAL  40  1  40
M  SED  40 [#1&h0]
M  END
>  <Activity>  (33) 
0.01

>  <Mapped(file=2032.csv.activities,property=Cached(PUBCHEM_COMPOUND_CID))>  (33) 
100

>  <MatchIndices>  (33) 
38 

>  <PUBCHEM_ATOM_DEF_STEREO_COUNT>  (33) 
0

>  <PUBCHEM_ATOM_UDEF_STEREO_COUNT>  (33) 
0

>  <PUBCHEM_BONDANNOTATIONS>  (33) 
10  13  8
10  14  8
11  15  8
12  16  8
13  18  8
14  19  8
15  17  8
16  17  8
18  21  8
19  21  8
9  11  8
9  12  8

>  <PUBCHEM_BOND_DEF_STEREO_COUNT>  (33) 
0

>  <PUBCHEM_BOND_UDEF_STEREO_COUNT>  (33) 
0

>  <PUBCHEM_CACTVS_COMPLEXITY>  (33) 
284

>  <PUBCHEM_CACTVS_HBOND_ACCEPTOR>  (33) 
3

>  <PUBCHEM_CACTVS_HBOND_DONOR>  (33) 
2

>  <PUBCHEM_CACTVS_ROTATABLE_BOND>  (33) 
7

>  <PUBCHEM_CACTVS_SUBSKEYS>  (33) 
AAADceB6IQAGAAAAAAAAAAAAAAAAAAAAAAAwYAAAAAAAAAABQAAAHwIQAAAADAbhmC4yBoLABACAAiBCAACCCAAgJQAIiIAODogMJiKFsxuGOCjm0BGIqAeQwKAOACAAIAAIAAAAQABAABAAAAAAAAAAAA==

>  <PUBCHEM_CACTVS_TAUTO_COUNT>  (33) 
1

>  <PUBCHEM_CACTVS_TPSA>  (33) 
21.3

>  <PUBCHEM_COMPONENT_COUNT>  (33) 
2

>  <PUBCHEM_COMPOUND_CANONICALIZED>  (33) 
1

>  <PUBCHEM_COMPOUND_CID>  (33) 
2984034

>  <PUBCHEM_COORDINATE_TYPE>  (33) 
1
5
255

>  <PUBCHEM_EXACT_MASS>  (33) 
343.090598

>  <PUBCHEM_HEAVY_ATOM_COUNT>  (33) 
22

>  <PUBCHEM_ISOTOPIC_ATOM_COUNT>  (33) 
0

>  <PUBCHEM_IUPAC_CAS_NAME>  (33) 
N-[(5-chloro-2-ethoxyphenyl)methyl]-2-(4-fluorophenyl)ethanamine hydrochloride

>  <PUBCHEM_IUPAC_INCHI>  (33) 
InChI=1S/C17H19ClFNO.ClH/c1-2-21-17-8-5-15(18)11-14(17)12-20-10-9-13-3-6-16(19)7-4-13;/h3-8,11,20H,2,9-10,12H2,1H3;1H

>  <PUBCHEM_IUPAC_INCHIKEY>  (33) 
DVKMKOFVBKHUNE-UHFFFAOYSA-N

>  <PUBCHEM_IUPAC_NAME>  (33) 
N-[(5-chloro-2-ethoxyphenyl)methyl]-2-(4-fluorophenyl)ethanamine hydrochloride

>  <PUBCHEM_IUPAC_OPENEYE_NAME>  (33) 
N-[(5-chloro-2-ethoxy-phenyl)methyl]-2-(4-fluorophenyl)ethanamine hydrochloride

>  <PUBCHEM_IUPAC_SYSTEMATIC_NAME>  (33) 
N-[(5-chloranyl-2-ethoxy-phenyl)methyl]-2-(4-fluorophenyl)ethanamine hydrochloride

>  <PUBCHEM_IUPAC_TRADITIONAL_NAME>  (33) 
(5-chloro-2-ethoxy-benzyl)-[2-(4-fluorophenyl)ethyl]amine hydrochloride

>  <PUBCHEM_MOLECULAR_FORMULA>  (33) 
C17H20Cl2FNO

>  <PUBCHEM_MOLECULAR_WEIGHT>  (33) 
344.251203

>  <PUBCHEM_MONOISOTOPIC_WEIGHT>  (33) 
343.090598

>  <PUBCHEM_OPENEYE_CAN_SMILES>  (33) 
CCOC1=C(C=C(C=C1)Cl)CNCCC2=CC=C(C=C2)F.Cl

>  <PUBCHEM_OPENEYE_ISO_SMILES>  (33) 
CCOC1=C(C=C(C=C1)Cl)CNCCC2=CC=C(C=C2)F.Cl

>  <PUBCHEM_TOTAL_CHARGE>  (33) 
0

$$$$
Largest isolated from Written by BCL::WriteToMDL,801116
     RDKit          2D

 35 36  0 35  0  0  0  0  0  0999 V2000
    0.7361   -2.4511    0.0000 Cl  0  0  0  0  0  0  0  0  0  0  0  0
    4.3880    2.3095    0.0000 Cl  0  0  0  0  0  0  0  0  0  0  0  0
   -0.4123    0.3204    0.0000 S   0  0  0  0  0  0  0  0  0  0  0  0
   -0.4252   -1.1796    0.0000 O   0  0  0  0  0  0  0  0  0  0  0  0
   -0.2167    1.8076    0.0000 O   0  0  0  0  0  0  0  0  0  0  0  0
    5.5364   -0.4619    0.0000 O   0  0  0  0  0  0  0  0  0  0  0  0
   -1.8995    0.5160    0.0000 N   0  0  0  0  0  0  0  0  0  0  0  0
   -4.2859    0.0734    0.0000 N   0  0  0  0  0  0  0  0  0  0  0  0
   -2.9319   -0.5722    0.0000 C   0  0  0  0  0  0  0  0  0  0  0  0
    1.0749    0.1248    0.0000 C   0  0  0  0  0  0  0  0  0  0  0  0
   -2.6154    1.8341    0.0000 C   0  0  0  0  0  0  0  0  0  0  0  0
   -2.6584   -2.0471    0.0000 C   0  0  0  0  0  0  0  0  0  0  0  0
   -4.0903    1.5605    0.0000 C   0  0  0  0  0  0  0  0  0  0  0  0
    1.6491   -1.2609    0.0000 C   0  0  0  0  0  0  0  0  0  0  0  0
    1.9878    1.3150    0.0000 C   0  0  0  0  0  0  0  0  0  0  0  0
   -2.3848   -3.5219    0.0000 C   0  0  0  0  0  0  0  0  0  0  0  0
   -5.1785    2.5929    0.0000 C   0  0  0  0  0  0  0  0  0  0  0  0
    3.4750    1.1194    0.0000 C   0  0  0  0  0  0  0  0  0  0  0  0
    3.1363   -1.4565    0.0000 C   0  0  0  0  0  0  0  0  0  0  0  0
    4.0493   -0.2664    0.0000 C   0  0  0  0  0  0  0  0  0  0  0  0
    6.4494    0.7282    0.0000 C   0  0  0  0  0  0  0  0  0  0  0  0
   -1.9699    3.1881    0.0000 H   0  0  0  0  0  0  0  0  0  0  0  0
   -1.1612   -1.9553    0.0000 H   0  0  0  0  0  0  0  0  0  0  0  0
   -4.1332   -2.3206    0.0000 H   0  0  0  0  0  0  0  0  0  0  0  0
    1.4136    2.7007    0.0000 H   0  0  0  0  0  0  0  0  0  0  0  0
   -0.9100   -3.2484    0.0000 H   0  0  0  0  0  0  0  0  0  0  0  0
   -3.8596   -3.7955    0.0000 H   0  0  0  0  0  0  0  0  0  0  0  0
   -2.1112   -4.9968    0.0000 H   0  0  0  0  0  0  0  0  0  0  0  0
   -6.2109    1.5047    0.0000 H   0  0  0  0  0  0  0  0  0  0  0  0
   -4.1461    3.6811    0.0000 H   0  0  0  0  0  0  0  0  0  0  0  0
   -6.2667    3.6253    0.0000 H   0  0  0  0  0  0  0  0  0  0  0  0
    3.7105   -2.8423    0.0000 H   0  0  0  0  0  0  0  0  0  0  0  0
    7.6396   -0.1848    0.0000 H   0  0  0  0  0  0  0  0  0  0  0  0
    5.2593    1.6412    0.0000 H   0  0  0  0  0  0  0  0  0  0  0  0
    7.3624    1.9184    0.0000 H   0  0  0  0  0  0  0  0  0  0  0  0
  1 14  1  0
  2 18  1  0
  3  4  2  0
  3  5  2  0
  3  7  1  0
  3 10  1  0
  6 20  1  0
  6 21  1  0
  7  9  1  0
  7 11  1  0
  8  9  2  0
  8 13  1  0
  9 12  1  0
 10 14  2  0
 10 15  1  0
 11 13  2  0
 11 22  1  0
 12 16  1  0
 12 23  1  0
 12 24  1  0
 13 17  1  0
 14 19  1  0
 15 18  2  0
 15 25  1  0
 16 26  1  0
 16 27  1  0
 16 28  1  0
 17 29  1  0
 17 30  1  0
 17 31  1  0
 18 20  1  0
 19 20  2  0
 19 32  1  0
 21 33  1  0
 21 34  1  0
 21 35  1  0
M  STY  8   1 DAT   2 DAT   3 DAT   4 DAT   5 DAT   6 DAT   7 DAT   8 DAT
M  STY  8   9 DAT  10 DAT  11 DAT  12 DAT  13 DAT  14 DAT  15 DAT  16 DAT
M  STY  8  17 DAT  18 DAT  19 DAT  20 DAT  21 DAT  22 DAT  23 DAT  24 DAT
M  STY  8  25 DAT  26 DAT  27 DAT  28 DAT  29 DAT  30 DAT  31 DAT  32 DAT
M  STY  3  33 DAT  34 DAT  35 DAT
M  SAL   1  1   1
M  SED   1 [#17&h0]
M  SAL   2  1   2
M  SED   2 [#17&h0]
M  SAL   3  1   3
M  SED   3 [#16&h0]
M  SAL   4  1   4
M  SED   4 [#8&h0]
M  SAL   5  1   5
M  SED   5 [#8&h0]
M  SAL   6  1   6
M  SED   6 [#8&h0]
M  SAL   7  1   7
M  SED   7 [#7&h0]
M  SAL   8  1   8
M  SED   8 [#7&h0]
M  SAL   9  1   9
M  SED   9 [#6&h0]
M  SAL  10  1  10
M  SED  10 [#6&h0]
M  SAL  11  1  11
M  SED  11 [#6&h0]
M  SAL  12  1  12
M  SED  12 [#6&h0]
M  SAL  13  1  13
M  SED  13 [#6&h0]
M  SAL  14  1  14
M  SED  14 [#6&h0]
M  SAL  15  1  15
M  SED  15 [#6&h0]
M  SAL  16  1  16
M  SED  16 [#6&h0]
M  SAL  17  1  17
M  SED  17 [#6&h0]
M  SAL  18  1  18
M  SED  18 [#6&h0]
M  SAL  19  1  19
M  SED  19 [#6&h0]
M  SAL  20  1  20
M  SED  20 [#6&h0]
M  SAL  21  1  21
M  SED  21 [#6&h0]
M  SAL  22  1  22
M  SED  22 [#1&h0]
M  SAL  23  1  23
M  SED  23 [#1&h0]
M  SAL  24  1  24
M  SED  24 [#1&h0]
M  SAL  25  1  25
M  SED  25 [#1&h0]
M  SAL  26  1  26
M  SED  26 [#1&h0]
M  SAL  27  1  27
M  SED  27 [#1&h0]
M  SAL  28  1  28
M  SED  28 [#1&h0]
M  SAL  29  1  29
M  SED  29 [#1&h0]
M  SAL  30  1  30
M  SED  30 [#1&h0]
M  SAL  31  1  31
M  SED  31 [#1&h0]
M  SAL  32  1  32
M  SED  32 [#1&h0]
M  SAL  33  1  33
M  SED  33 [#1&h0]
M  SAL  34  1  34
M  SED  34 [#1&h0]
M  SAL  35  1  35
M  SED  35 [#1&h0]
M  END
>  <Activity>  (34) 
0.01

>  <Mapped(file=2032.csv.activities,property=Cached(PUBCHEM_COMPOUND_CID))>  (34) 
100

>  <MatchIndices>  (34) 
53 

>  <PUBCHEM_ATOM_DEF_STEREO_COUNT>  (34) 
0

>  <PUBCHEM_ATOM_UDEF_STEREO_COUNT>  (34) 
0

>  <PUBCHEM_BONDANNOTATIONS>  (34) 
10  14  8
10  15  8
11  13  8
14  19  8
15  18  8
18  20  8
19  20  8
7  11  8
7  9  8
8  13  8
8  9  8

>  <PUBCHEM_BOND_DEF_STEREO_COUNT>  (34) 
0

>  <PUBCHEM_BOND_UDEF_STEREO_COUNT>  (34) 
0

>  <PUBCHEM_CACTVS_COMPLEXITY>  (34) 
457

>  <PUBCHEM_CACTVS_HBOND_ACCEPTOR>  (34) 
3

>  <PUBCHEM_CACTVS_HBOND_DONOR>  (34) 
0

>  <PUBCHEM_CACTVS_ROTATABLE_BOND>  (34) 
4

>  <PUBCHEM_CACTVS_SUBSKEYS>  (34) 
AAADccBzMABGAAAAAAAAAAAAAAAAAWAAAAAwAAAAAAAAAAABwAAAHgYAQAAACA7B1yY/l5YIFAKgATZnZHBCiD0xN+AB2Bg+e4iMbiPFOxqUMCAswBPIqCeAQAAAAIAQARAACIABACACIAARAAAAAAAAAA==

>  <PUBCHEM_CACTVS_TAUTO_COUNT>  (34) 
2

>  <PUBCHEM_CACTVS_TPSA>  (34) 
69.6

>  <PUBCHEM_COMPONENT_COUNT>  (34) 
1

>  <PUBCHEM_COMPOUND_CANONICALIZED>  (34) 
1

>  <PUBCHEM_COMPOUND_CID>  (34) 
801116

>  <PUBCHEM_COORDINATE_TYPE>  (34) 
1
5
255

>  <PUBCHEM_EXACT_MASS>  (34) 
348.010219

>  <PUBCHEM_HEAVY_ATOM_COUNT>  (34) 
21

>  <PUBCHEM_ISOTOPIC_ATOM_COUNT>  (34) 
0

>  <PUBCHEM_IUPAC_CAS_NAME>  (34) 
1-(2,5-dichloro-4-methoxyphenyl)sulfonyl-2-ethyl-4-methylimidazole

>  <PUBCHEM_IUPAC_INCHI>  (34) 
InChI=1S/C13H14Cl2N2O3S/c1-4-13-16-8(2)7-17(13)21(18,19)12-6-9(14)11(20-3)5-10(12)15/h5-7H,4H2,1-3H3

>  <PUBCHEM_IUPAC_INCHIKEY>  (34) 
URXHTZDMAZVXAP-UHFFFAOYSA-N

>  <PUBCHEM_IUPAC_NAME>  (34) 
1-(2,5-dichloro-4-methoxyphenyl)sulfonyl-2-ethyl-4-methylimidazole

>  <PUBCHEM_IUPAC_OPENEYE_NAME>  (34) 
1-(2,5-dichloro-4-methoxy-phenyl)sulfonyl-2-ethyl-4-methyl-imidazole

>  <PUBCHEM_IUPAC_SYSTEMATIC_NAME>  (34) 
1-[2,5-bis(chloranyl)-4-methoxy-phenyl]sulfonyl-2-ethyl-4-methyl-imidazole

>  <PUBCHEM_IUPAC_TRADITIONAL_NAME>  (34) 
1-(2,5-dichloro-4-methoxy-phenyl)sulfonyl-2-ethyl-4-methyl-imidazole

>  <PUBCHEM_MOLECULAR_FORMULA>  (34) 
C13H14Cl2N2O3S

>  <PUBCHEM_MOLECULAR_WEIGHT>  (34) 
349.23286

>  <PUBCHEM_MONOISOTOPIC_WEIGHT>  (34) 
348.010219

>  <PUBCHEM_OPENEYE_CAN_SMILES>  (34) 
CCC1=NC(=CN1S(=O)(=O)C2=C(C=C(C(=C2)Cl)OC)Cl)C

>  <PUBCHEM_OPENEYE_ISO_SMILES>  (34) 
CCC1=NC(=CN1S(=O)(=O)C2=C(C=C(C(=C2)Cl)OC)Cl)C

>  <PUBCHEM_TOTAL_CHARGE>  (34) 
0

>  <PUBCHEM_XLOGP3_AA>  (34) 
3.7

$$$$
Largest isolated from Written by BCL::WriteToMDL,5413085
     RDKit          2D

 42 44  0 42  0  0  0  0  0  0999 V2000
   -0.6617   -1.0657    0.0000 S   0  0  0  0  0  0  0  0  0  0  0  0
    4.5037    1.7392    0.0000 O   0  0  0  0  0  0  0  0  0  0  0  0
    0.1641    4.5973    0.0000 O   0  0  0  0  0  0  0  0  0  0  0  0
   -2.2948    3.3551    0.0000 N   0  0  0  0  0  0  0  0  0  0  0  0
   -3.7462    2.9762    0.0000 N   0  0  0  0  0  0  0  0  0  0  0  0
   -3.0101   -1.6787    0.0000 N   0  0  0  0  0  0  0  0  0  0  0  0
   -1.4860    2.0919    0.0000 C   0  0  0  0  0  0  0  0  0  0  0  0
   -2.4375    0.9322    0.0000 C   0  0  0  0  0  0  0  0  0  0  0  0
    0.0114    2.0037    0.0000 C   0  0  0  0  0  0  0  0  0  0  0  0
   -3.8343    1.4788    0.0000 C   0  0  0  0  0  0  0  0  0  0  0  0
    2.1812    0.5746    0.0000 C   0  0  0  0  0  0  0  0  0  0  0  0
    0.6838    0.6628    0.0000 C   0  0  0  0  0  0  0  0  0  0  0  0
    0.8365    3.2564    0.0000 C   0  0  0  0  0  0  0  0  0  0  0  0
   -2.0586   -0.5191    0.0000 C   0  0  0  0  0  0  0  0  0  0  0  0
    2.8535   -0.7662    0.0000 C   0  0  0  0  0  0  0  0  0  0  0  0
    3.0062    1.8274    0.0000 C   0  0  0  0  0  0  0  0  0  0  0  0
    2.3339    3.1682    0.0000 C   0  0  0  0  0  0  0  0  0  0  0  0
   -5.0976    0.6700    0.0000 C   0  0  0  0  0  0  0  0  0  0  0  0
    3.5259   -2.1071    0.0000 C   0  0  0  0  0  0  0  0  0  0  0  0
   -2.2012   -2.9420    0.0000 C   0  0  0  0  0  0  0  0  0  0  0  0
   -0.7499   -2.5631    0.0000 C   0  0  0  0  0  0  0  0  0  0  0  0
   -2.7478   -4.3388    0.0000 C   0  0  0  0  0  0  0  0  0  0  0  0
    5.1760    0.3983    0.0000 C   0  0  0  0  0  0  0  0  0  0  0  0
   -1.7482    4.7520    0.0000 H   0  0  0  0  0  0  0  0  0  0  0  0
    0.2361   -0.6108    0.0000 H   0  0  0  0  0  0  0  0  0  0  0  0
   -4.9058    3.9277    0.0000 H   0  0  0  0  0  0  0  0  0  0  0  0
    3.6044   -0.4984    0.0000 H   0  0  0  0  0  0  0  0  0  0  0  0
    1.5127   -1.4386    0.0000 H   0  0  0  0  0  0  0  0  0  0  0  0
    3.1590    4.4209    0.0000 H   0  0  0  0  0  0  0  0  0  0  0  0
   -5.9064    1.9332    0.0000 H   0  0  0  0  0  0  0  0  0  0  0  0
   -4.2888   -0.5933    0.0000 H   0  0  0  0  0  0  0  0  0  0  0  0
   -6.3608   -0.1388    0.0000 H   0  0  0  0  0  0  0  0  0  0  0  0
    2.1850   -2.7795    0.0000 H   0  0  0  0  0  0  0  0  0  0  0  0
    4.8668   -1.4348    0.0000 H   0  0  0  0  0  0  0  0  0  0  0  0
    4.1982   -3.4480    0.0000 H   0  0  0  0  0  0  0  0  0  0  0  0
    0.4097   -3.5146    0.0000 H   0  0  0  0  0  0  0  0  0  0  0  0
   -4.1447   -3.7923    0.0000 H   0  0  0  0  0  0  0  0  0  0  0  0
   -1.3509   -4.8854    0.0000 H   0  0  0  0  0  0  0  0  0  0  0  0
   -3.2944   -5.7357    0.0000 H   0  0  0  0  0  0  0  0  0  0  0  0
    6.5169    1.0707    0.0000 H   0  0  0  0  0  0  0  0  0  0  0  0
    4.5123   -0.0432    0.0000 H   0  0  0  0  0  0  0  0  0  0  0  0
    5.8484   -0.9426    0.0000 H   0  0  0  0  0  0  0  0  0  0  0  0
  1 14  1  0
  1 21  1  0
  2 16  1  0
  2 23  1  0
  3 13  2  0
  4  5  1  0
  4  7  1  0
  4 24  1  0
  5 10  1  0
  5 26  1  0
  6 14  2  0
  6 20  1  0
  7  8  1  0
  7  9  2  0
  8 10  2  0
  8 14  1  0
  9 12  1  0
  9 13  1  0
 10 18  1  0
 11 12  2  0
 11 15  1  0
 11 16  1  0
 12 25  1  0
 13 17  1  0
 15 19  1  0
 15 27  1  0
 15 28  1  0
 16 17  2  0
 17 29  1  0
 18 30  1  0
 18 31  1  0
 18 32  1  0
 19 33  1  0
 19 34  1  0
 19 35  1  0
 20 21  2  0
 20 22  1  0
 21 36  1  0
 22 37  1  0
 22 38  1  0
 22 39  1  0
 23 40  1  0
 23 41  1  0
 23 42  1  0
M  STY  8   1 DAT   2 DAT   3 DAT   4 DAT   5 DAT   6 DAT   7 DAT   8 DAT
M  STY  8   9 DAT  10 DAT  11 DAT  12 DAT  13 DAT  14 DAT  15 DAT  16 DAT
M  STY  8  17 DAT  18 DAT  19 DAT  20 DAT  21 DAT  22 DAT  23 DAT  24 DAT
M  STY  8  25 DAT  26 DAT  27 DAT  28 DAT  29 DAT  30 DAT  31 DAT  32 DAT
M  STY  8  33 DAT  34 DAT  35 DAT  36 DAT  37 DAT  38 DAT  39 DAT  40 DAT
M  STY  2  41 DAT  42 DAT
M  SAL   1  1   1
M  SED   1 [#16&h0]
M  SAL   2  1   2
M  SED   2 [#8&h0]
M  SAL   3  1   3
M  SED   3 [#8&h0]
M  SAL   4  1   4
M  SED   4 [#7&h0]
M  SAL   5  1   5
M  SED   5 [#7&h0]
M  SAL   6  1   6
M  SED   6 [#7&h0]
M  SAL   7  1   7
M  SED   7 [#6&h0]
M  SAL   8  1   8
M  SED   8 [#6&h0]
M  SAL   9  1   9
M  SED   9 [#6&h0]
M  SAL  10  1  10
M  SED  10 [#6&h0]
M  SAL  11  1  11
M  SED  11 [#6&h0]
M  SAL  12  1  12
M  SED  12 [#6&h0]
M  SAL  13  1  13
M  SED  13 [#6&h0]
M  SAL  14  1  14
M  SED  14 [#6&h0]
M  SAL  15  1  15
M  SED  15 [#6&h0]
M  SAL  16  1  16
M  SED  16 [#6&h0]
M  SAL  17  1  17
M  SED  17 [#6&h0]
M  SAL  18  1  18
M  SED  18 [#6&h0]
M  SAL  19  1  19
M  SED  19 [#6&h0]
M  SAL  20  1  20
M  SED  20 [#6&h0]
M  SAL  21  1  21
M  SED  21 [#6&h0]
M  SAL  22  1  22
M  SED  22 [#6&h0]
M  SAL  23  1  23
M  SED  23 [#6&h0]
M  SAL  24  1  24
M  SED  24 [#1&h0]
M  SAL  25  1  25
M  SED  25 [#1&h0]
M  SAL  26  1  26
M  SED  26 [#1&h0]
M  SAL  27  1  27
M  SED  27 [#1&h0]
M  SAL  28  1  28
M  SED  28 [#1&h0]
M  SAL  29  1  29
M  SED  29 [#1&h0]
M  SAL  30  1  30
M  SED  30 [#1&h0]
M  SAL  31  1  31
M  SED  31 [#1&h0]
M  SAL  32  1  32
M  SED  32 [#1&h0]
M  SAL  33  1  33
M  SED  33 [#1&h0]
M  SAL  34  1  34
M  SED  34 [#1&h0]
M  SAL  35  1  35
M  SED  35 [#1&h0]
M  SAL  36  1  36
M  SED  36 [#1&h0]
M  SAL  37  1  37
M  SED  37 [#1&h0]
M  SAL  38  1  38
M  SED  38 [#1&h0]
M  SAL  39  1  39
M  SED  39 [#1&h0]
M  SAL  40  1  40
M  SED  40 [#1&h0]
M  SAL  41  1  41
M  SED  41 [#1&h0]
M  SAL  42  1  42
M  SED  42 [#1&h0]
M  END
>  <Activity>  (35) 
0.01

>  <Mapped(file=2032.csv.activities,property=Cached(PUBCHEM_COMPOUND_CID))>  (35) 
100

>  <MatchIndices>  (35) 
205 

>  <PUBCHEM_ATOM_DEF_STEREO_COUNT>  (35) 
0

>  <PUBCHEM_ATOM_UDEF_STEREO_COUNT>  (35) 
0

>  <PUBCHEM_BONDANNOTATIONS>  (35) 
1  14  8
1  21  8
20  21  8
6  14  8
6  20  8

>  <PUBCHEM_BOND_DEF_STEREO_COUNT>  (35) 
1

>  <PUBCHEM_BOND_UDEF_STEREO_COUNT>  (35) 
0

>  <PUBCHEM_CACTVS_COMPLEXITY>  (35) 
661

>  <PUBCHEM_CACTVS_HBOND_ACCEPTOR>  (35) 
5

>  <PUBCHEM_CACTVS_HBOND_DONOR>  (35) 
2

>  <PUBCHEM_CACTVS_ROTATABLE_BOND>  (35) 
3

>  <PUBCHEM_CACTVS_SUBSKEYS>  (35) 
AAADceB7MABAAAAAAAAAAAAAAAAAAWIAAAAgAAAAAAAAAAABgAAAHgQYAAAADAyF1gKigRJqFAisA6RyRACA+KBhKjoQKBUwIFgIBAAgYQAEEAAEkACooUIAAAAAAAAAAAAAAAAAAAAAAAAAAAAAAAAAAA==

>  <PUBCHEM_CACTVS_TAUTO_COUNT>  (35) 
47

>  <PUBCHEM_CACTVS_TPSA>  (35) 
91.5

>  <PUBCHEM_COMPONENT_COUNT>  (35) 
1

>  <PUBCHEM_COMPOUND_CANONICALIZED>  (35) 
1

>  <PUBCHEM_COMPOUND_CID>  (35) 
5413085

>  <PUBCHEM_COORDINATE_TYPE>  (35) 
1
5
255

>  <PUBCHEM_EXACT_MASS>  (35) 
329.119798

>  <PUBCHEM_HEAVY_ATOM_COUNT>  (35) 
23

>  <PUBCHEM_ISOTOPIC_ATOM_COUNT>  (35) 
0

>  <PUBCHEM_IUPAC_CAS_NAME>  (35) 
(6Z)-4-ethyl-3-methoxy-6-[5-methyl-4-(4-methyl-2-thiazolyl)-1,2-dihydropyrazol-3-ylidene]-1-cyclohexa-2,4-dienone

>  <PUBCHEM_IUPAC_INCHI>  (35) 
InChI=1S/C17H19N3O2S/c1-5-11-6-12(13(21)7-14(11)22-4)16-15(10(3)19-20-16)17-18-9(2)8-23-17/h6-8,19-20H,5H2,1-4H3/b16-12-

>  <PUBCHEM_IUPAC_INCHIKEY>  (35) 
GSBUFVIJOFTSPY-VBKFSLOCSA-N

>  <PUBCHEM_IUPAC_NAME>  (35) 
(6Z)-4-ethyl-3-methoxy-6-[5-methyl-4-(4-methyl-1,3-thiazol-2-yl)-1,2-dihydropyrazol-3-ylidene]cyclohexa-2,4-dien-1-one

>  <PUBCHEM_IUPAC_OPENEYE_NAME>  (35) 
(6Z)-4-ethyl-3-methoxy-6-[5-methyl-4-(4-methylthiazol-2-yl)-1,2-dihydropyrazol-3-ylidene]cyclohexa-2,4-dien-1-one

>  <PUBCHEM_IUPAC_SYSTEMATIC_NAME>  (35) 
(6Z)-4-ethyl-3-methoxy-6-[5-methyl-4-(4-methyl-1,3-thiazol-2-yl)-1,2-dihydropyrazol-3-ylidene]cyclohexa-2,4-dien-1-one

>  <PUBCHEM_IUPAC_TRADITIONAL_NAME>  (35) 
(6Z)-4-ethyl-3-methoxy-6-[5-methyl-4-(4-methylthiazol-2-yl)-3-pyrazolin-3-ylidene]cyclohexa-2,4-dien-1-one

>  <PUBCHEM_MOLECULAR_FORMULA>  (35) 
C17H19N3O2S

>  <PUBCHEM_MOLECULAR_WEIGHT>  (35) 
329.41666

>  <PUBCHEM_MONOISOTOPIC_WEIGHT>  (35) 
329.119798

>  <PUBCHEM_OPENEYE_CAN_SMILES>  (35) 
CCC1=CC(=C2C(=C(NN2)C)C3=NC(=CS3)C)C(=O)C=C1OC

>  <PUBCHEM_OPENEYE_ISO_SMILES>  (35) 
CCC1=C/C(=C/2\C(=C(NN2)C)C3=NC(=CS3)C)/C(=O)C=C1OC

>  <PUBCHEM_TOTAL_CHARGE>  (35) 
0

>  <PUBCHEM_XLOGP3_AA>  (35) 
2.8

$$$$
Largest isolated from Written by BCL::WriteToMDL,2984782
     RDKit          2D

 47 48  0 47  0  0  0  0  0  0999 V2000
   -2.9097    2.2900    0.0000 Br  0  0  0  0  0  0  0  0  0  0  0  0
   -3.3187   -0.6820    0.0000 O   0  0  0  0  0  0  0  0  0  0  0  0
   -0.9494   -2.5222    0.0000 O   0  0  0  0  0  0  0  0  0  0  0  0
    3.6271    2.1474    0.0000 N   0  0  0  0  0  0  0  0  0  0  0  0
   -4.5034    0.2381    0.0000 C   0  0  0  0  0  0  0  0  0  0  0  0
   -5.4708    1.3845    0.0000 C   0  0  0  0  0  0  0  0  0  0  0  0
   -5.2946   -1.0362    0.0000 C   0  0  0  0  0  0  0  0  0  0  0  0
   -6.8600    0.8186    0.0000 C   0  0  0  0  0  0  0  0  0  0  0  0
   -6.7511   -0.6775    0.0000 C   0  0  0  0  0  0  0  0  0  0  0  0
   -1.9296   -0.1161    0.0000 C   0  0  0  0  0  0  0  0  0  0  0  0
   -0.7449   -1.0362    0.0000 C   0  0  0  0  0  0  0  0  0  0  0  0
   -1.7250    1.3699    0.0000 C   0  0  0  0  0  0  0  0  0  0  0  0
    0.8488    1.0157    0.0000 C   0  0  0  0  0  0  0  0  0  0  0  0
    0.6442   -0.4703    0.0000 C   0  0  0  0  0  0  0  0  0  0  0  0
    2.2379    1.5815    0.0000 C   0  0  0  0  0  0  0  0  0  0  0  0
   -0.3359    1.9358    0.0000 C   0  0  0  0  0  0  0  0  0  0  0  0
    4.8117    1.2273    0.0000 C   0  0  0  0  0  0  0  0  0  0  0  0
    5.9964    0.3072    0.0000 C   0  0  0  0  0  0  0  0  0  0  0  0
    7.1810   -0.6129    0.0000 C   0  0  0  0  0  0  0  0  0  0  0  0
    8.3657   -1.5330    0.0000 C   0  0  0  0  0  0  0  0  0  0  0  0
   -2.3386   -3.0881    0.0000 C   0  0  0  0  0  0  0  0  0  0  0  0
   -3.4645    1.3201    0.0000 H   0  0  0  0  0  0  0  0  0  0  0  0
   -4.2297    2.2268    0.0000 H   0  0  0  0  0  0  0  0  0  0  0  0
   -6.1788    2.7069    0.0000 H   0  0  0  0  0  0  0  0  0  0  0  0
   -5.8036   -2.4472    0.0000 H   0  0  0  0  0  0  0  0  0  0  0  0
   -3.9446   -1.6899    0.0000 H   0  0  0  0  0  0  0  0  0  0  0  0
   -7.2776    2.2593    0.0000 H   0  0  0  0  0  0  0  0  0  0  0  0
   -8.3365    0.5539    0.0000 H   0  0  0  0  0  0  0  0  0  0  0  0
   -8.2503   -0.6294    0.0000 H   0  0  0  0  0  0  0  0  0  0  0  0
   -6.9556   -2.1635    0.0000 H   0  0  0  0  0  0  0  0  0  0  0  0
    1.6721    2.9707    0.0000 H   0  0  0  0  0  0  0  0  0  0  0  0
    2.8038    0.1924    0.0000 H   0  0  0  0  0  0  0  0  0  0  0  0
    1.8289   -1.3904    0.0000 H   0  0  0  0  0  0  0  0  0  0  0  0
   -0.1314    3.4218    0.0000 H   0  0  0  0  0  0  0  0  0  0  0  0
    5.7319    2.4119    0.0000 H   0  0  0  0  0  0  0  0  0  0  0  0
    3.8916    0.0427    0.0000 H   0  0  0  0  0  0  0  0  0  0  0  0
    5.0763   -0.8775    0.0000 H   0  0  0  0  0  0  0  0  0  0  0  0
    6.9165    1.4918    0.0000 H   0  0  0  0  0  0  0  0  0  0  0  0
    3.8316    3.6334    0.0000 H   0  0  0  0  0  0  0  0  0  0  0  0
    8.1012    0.5717    0.0000 H   0  0  0  0  0  0  0  0  0  0  0  0
    6.2609   -1.7976    0.0000 H   0  0  0  0  0  0  0  0  0  0  0  0
    7.4456   -2.7177    0.0000 H   0  0  0  0  0  0  0  0  0  0  0  0
    9.2858   -0.3484    0.0000 H   0  0  0  0  0  0  0  0  0  0  0  0
    9.5503   -2.4532    0.0000 H   0  0  0  0  0  0  0  0  0  0  0  0
   -1.7727   -4.4772    0.0000 H   0  0  0  0  0  0  0  0  0  0  0  0
   -2.9045   -1.6989    0.0000 H   0  0  0  0  0  0  0  0  0  0  0  0
   -3.7278   -3.6540    0.0000 H   0  0  0  0  0  0  0  0  0  0  0  0
  1 12  1  0
  2  5  1  0
  2 10  1  0
  3 11  1  0
  3 21  1  0
  4 15  1  0
  4 17  1  0
  4 39  1  0
  5  6  1  0
  5  7  1  0
  5 22  1  0
  6  8  1  0
  6 23  1  0
  6 24  1  0
  7  9  1  0
  7 25  1  0
  7 26  1  0
  8  9  1  0
  8 27  1  0
  8 28  1  0
  9 29  1  0
  9 30  1  0
 10 11  2  0
 10 12  1  0
 11 14  1  0
 12 16  2  0
 13 14  2  0
 13 15  1  0
 13 16  1  0
 14 33  1  0
 15 31  1  0
 15 32  1  0
 16 34  1  0
 17 18  1  0
 17 35  1  0
 17 36  1  0
 18 19  1  0
 18 37  1  0
 18 38  1  0
 19 20  1  0
 19 40  1  0
 19 41  1  0
 20 42  1  0
 20 43  1  0
 20 44  1  0
 21 45  1  0
 21 46  1  0
 21 47  1  0
M  STY  8   1 DAT   2 DAT   3 DAT   4 DAT   5 DAT   6 DAT   7 DAT   8 DAT
M  STY  8   9 DAT  10 DAT  11 DAT  12 DAT  13 DAT  14 DAT  15 DAT  16 DAT
M  STY  8  17 DAT  18 DAT  19 DAT  20 DAT  21 DAT  22 DAT  23 DAT  24 DAT
M  STY  8  25 DAT  26 DAT  27 DAT  28 DAT  29 DAT  30 DAT  31 DAT  32 DAT
M  STY  8  33 DAT  34 DAT  35 DAT  36 DAT  37 DAT  38 DAT  39 DAT  40 DAT
M  STY  7  41 DAT  42 DAT  43 DAT  44 DAT  45 DAT  46 DAT  47 DAT
M  SAL   1  1   1
M  SED   1 [#35&h0]
M  SAL   2  1   2
M  SED   2 [#8&h0]
M  SAL   3  1   3
M  SED   3 [#8&h0]
M  SAL   4  1   4
M  SED   4 [#7&h0]
M  SAL   5  1   5
M  SED   5 [#6&h0]
M  SAL   6  1   6
M  SED   6 [#6&h0]
M  SAL   7  1   7
M  SED   7 [#6&h0]
M  SAL   8  1   8
M  SED   8 [#6&h0]
M  SAL   9  1   9
M  SED   9 [#6&h0]
M  SAL  10  1  10
M  SED  10 [#6&h0]
M  SAL  11  1  11
M  SED  11 [#6&h0]
M  SAL  12  1  12
M  SED  12 [#6&h0]
M  SAL  13  1  13
M  SED  13 [#6&h0]
M  SAL  14  1  14
M  SED  14 [#6&h0]
M  SAL  15  1  15
M  SED  15 [#6&h0]
M  SAL  16  1  16
M  SED  16 [#6&h0]
M  SAL  17  1  17
M  SED  17 [#6&h0]
M  SAL  18  1  18
M  SED  18 [#6&h0]
M  SAL  19  1  19
M  SED  19 [#6&h0]
M  SAL  20  1  20
M  SED  20 [#6&h0]
M  SAL  21  1  21
M  SED  21 [#6&h0]
M  SAL  22  1  22
M  SED  22 [#1&h0]
M  SAL  23  1  23
M  SED  23 [#1&h0]
M  SAL  24  1  24
M  SED  24 [#1&h0]
M  SAL  25  1  25
M  SED  25 [#1&h0]
M  SAL  26  1  26
M  SED  26 [#1&h0]
M  SAL  27  1  27
M  SED  27 [#1&h0]
M  SAL  28  1  28
M  SED  28 [#1&h0]
M  SAL  29  1  29
M  SED  29 [#1&h0]
M  SAL  30  1  30
M  SED  30 [#1&h0]
M  SAL  31  1  31
M  SED  31 [#1&h0]
M  SAL  32  1  32
M  SED  32 [#1&h0]
M  SAL  33  1  33
M  SED  33 [#1&h0]
M  SAL  34  1  34
M  SED  34 [#1&h0]
M  SAL  35  1  35
M  SED  35 [#1&h0]
M  SAL  36  1  36
M  SED  36 [#1&h0]
M  SAL  37  1  37
M  SED  37 [#1&h0]
M  SAL  38  1  38
M  SED  38 [#1&h0]
M  SAL  39  1  39
M  SED  39 [#1&h0]
M  SAL  40  1  40
M  SED  40 [#1&h0]
M  SAL  41  1  41
M  SED  41 [#1&h0]
M  SAL  42  1  42
M  SED  42 [#1&h0]
M  SAL  43  1  43
M  SED  43 [#1&h0]
M  SAL  44  1  44
M  SED  44 [#1&h0]
M  SAL  45  1  45
M  SED  45 [#1&h0]
M  SAL  46  1  46
M  SED  46 [#1&h0]
M  SAL  47  1  47
M  SED  47 [#1&h0]
M  END
>  <Activity>  (36) 
0.01

>  <Mapped(file=2032.csv.activities,property=Cached(PUBCHEM_COMPOUND_CID))>  (36) 
100

>  <MatchIndices>  (36) 
162 

>  <PUBCHEM_ATOM_DEF_STEREO_COUNT>  (36) 
0

>  <PUBCHEM_ATOM_UDEF_STEREO_COUNT>  (36) 
0

>  <PUBCHEM_BONDANNOTATIONS>  (36) 
11  12  8
11  13  8
12  15  8
13  17  8
14  15  8
14  17  8

>  <PUBCHEM_BOND_DEF_STEREO_COUNT>  (36) 
0

>  <PUBCHEM_BOND_UDEF_STEREO_COUNT>  (36) 
0

>  <PUBCHEM_CACTVS_COMPLEXITY>  (36) 
284

>  <PUBCHEM_CACTVS_HBOND_ACCEPTOR>  (36) 
3

>  <PUBCHEM_CACTVS_HBOND_DONOR>  (36) 
2

>  <PUBCHEM_CACTVS_ROTATABLE_BOND>  (36) 
8

>  <PUBCHEM_CACTVS_SUBSKEYS>  (36) 
AAADceB6MAAEEAAAAAAAAAAAAAAAAYAAAAAwAAAAAAAAAAABAAAAHgBQAAABrBThmAYyBoLABACAAiBCAACCCAAgIAQAiIAOjKgNJiKEsRuGOCrk0BGKqhew0BIOIAABEIAARABAAAIhAACIAAAAAAAAAA==

>  <PUBCHEM_CACTVS_TAUTO_COUNT>  (36) 
1

>  <PUBCHEM_CACTVS_TPSA>  (36) 
30.5

>  <PUBCHEM_COMPONENT_COUNT>  (36) 
2

>  <PUBCHEM_COMPOUND_CANONICALIZED>  (36) 
1

>  <PUBCHEM_COMPOUND_CID>  (36) 
2984782

>  <PUBCHEM_COORDINATE_TYPE>  (36) 
1
5
255

>  <PUBCHEM_EXACT_MASS>  (36) 
391.091369

>  <PUBCHEM_HEAVY_ATOM_COUNT>  (36) 
22

>  <PUBCHEM_ISOTOPIC_ATOM_COUNT>  (36) 
0

>  <PUBCHEM_IUPAC_CAS_NAME>  (36) 
N-[(3-bromo-4-cyclopentyloxy-5-methoxyphenyl)methyl]-1-butanamine hydrochloride

>  <PUBCHEM_IUPAC_INCHI>  (36) 
InChI=1S/C17H26BrNO2.ClH/c1-3-4-9-19-12-13-10-15(18)17(16(11-13)20-2)21-14-7-5-6-8-14;/h10-11,14,19H,3-9,12H2,1-2H3;1H

>  <PUBCHEM_IUPAC_INCHIKEY>  (36) 
CKZNGMPMGXFLLV-UHFFFAOYSA-N

>  <PUBCHEM_IUPAC_NAME>  (36) 
N-[(3-bromo-4-cyclopentyloxy-5-methoxyphenyl)methyl]butan-1-amine hydrochloride

>  <PUBCHEM_IUPAC_OPENEYE_NAME>  (36) 
N-[[3-bromo-4-(cyclopentoxy)-5-methoxy-phenyl]methyl]butan-1-amine hydrochloride

>  <PUBCHEM_IUPAC_SYSTEMATIC_NAME>  (36) 
N-[(3-bromanyl-4-cyclopentyloxy-5-methoxy-phenyl)methyl]butan-1-amine hydrochloride

>  <PUBCHEM_IUPAC_TRADITIONAL_NAME>  (36) 
[3-bromo-4-(cyclopentoxy)-5-methoxy-benzyl]-butyl-amine hydrochloride

>  <PUBCHEM_MOLECULAR_FORMULA>  (36) 
C17H27BrClNO2

>  <PUBCHEM_MOLECULAR_WEIGHT>  (36) 
392.75878

>  <PUBCHEM_MONOISOTOPIC_WEIGHT>  (36) 
391.091369

>  <PUBCHEM_OPENEYE_CAN_SMILES>  (36) 
CCCCNCC1=CC(=C(C(=C1)Br)OC2CCCC2)OC.Cl

>  <PUBCHEM_OPENEYE_ISO_SMILES>  (36) 
CCCCNCC1=CC(=C(C(=C1)Br)OC2CCCC2)OC.Cl

>  <PUBCHEM_TOTAL_CHARGE>  (36) 
0

$$$$
Largest isolated from Written by BCL::WriteToMDL,17367486
     RDKit          2D

 44 46  0 44  0  0  0  0  0  0999 V2000
    5.7715   -2.0922    0.0000 O   0  0  0  0  0  0  0  0  0  0  0  0
   -7.2098   -1.6066    0.0000 O   0  0  0  0  0  0  0  0  0  0  0  0
   -0.5790    1.8980    0.0000 N   0  0  0  0  0  0  0  0  0  0  0  0
    1.9612    0.3019    0.0000 C   0  0  0  0  0  0  0  0  0  0  0  0
    3.2874    1.0028    0.0000 C   0  0  0  0  0  0  0  0  0  0  0  0
    0.6911    1.0999    0.0000 C   0  0  0  0  0  0  0  0  0  0  0  0
    4.5575    0.2048    0.0000 C   0  0  0  0  0  0  0  0  0  0  0  0
    1.9051   -1.1970    0.0000 C   0  0  0  0  0  0  0  0  0  0  0  0
   -1.9051    1.1970    0.0000 C   0  0  0  0  0  0  0  0  0  0  0  0
    4.5014   -1.2942    0.0000 C   0  0  0  0  0  0  0  0  0  0  0  0
    3.3434    2.5018    0.0000 C   0  0  0  0  0  0  0  0  0  0  0  0
    3.1752   -1.9951    0.0000 C   0  0  0  0  0  0  0  0  0  0  0  0
    5.8836    0.9057    0.0000 C   0  0  0  0  0  0  0  0  0  0  0  0
   -3.2313    0.4961    0.0000 C   0  0  0  0  0  0  0  0  0  0  0  0
    4.6696    3.2027    0.0000 C   0  0  0  0  0  0  0  0  0  0  0  0
    5.9397    2.4047    0.0000 C   0  0  0  0  0  0  0  0  0  0  0  0
   -4.5014    1.2942    0.0000 C   0  0  0  0  0  0  0  0  0  0  0  0
   -3.2874   -1.0028    0.0000 C   0  0  0  0  0  0  0  0  0  0  0  0
   -5.8276    0.5932    0.0000 C   0  0  0  0  0  0  0  0  0  0  0  0
   -4.6135   -1.7037    0.0000 C   0  0  0  0  0  0  0  0  0  0  0  0
   -5.8836   -0.9057    0.0000 C   0  0  0  0  0  0  0  0  0  0  0  0
    5.7154   -3.5911    0.0000 C   0  0  0  0  0  0  0  0  0  0  0  0
   -8.4799   -0.8086    0.0000 C   0  0  0  0  0  0  0  0  0  0  0  0
    1.4891    2.3700    0.0000 H   0  0  0  0  0  0  0  0  0  0  0  0
   -0.1069   -0.1702    0.0000 H   0  0  0  0  0  0  0  0  0  0  0  0
   -0.5229    3.3969    0.0000 H   0  0  0  0  0  0  0  0  0  0  0  0
    0.5790   -1.8980    0.0000 H   0  0  0  0  0  0  0  0  0  0  0  0
   -2.6061    2.5232    0.0000 H   0  0  0  0  0  0  0  0  0  0  0  0
   -1.2042   -0.1291    0.0000 H   0  0  0  0  0  0  0  0  0  0  0  0
    2.0733    3.2998    0.0000 H   0  0  0  0  0  0  0  0  0  0  0  0
    3.1192   -3.4940    0.0000 H   0  0  0  0  0  0  0  0  0  0  0  0
    7.1537    0.1077    0.0000 H   0  0  0  0  0  0  0  0  0  0  0  0
    4.7257    4.7017    0.0000 H   0  0  0  0  0  0  0  0  0  0  0  0
    7.2659    3.1056    0.0000 H   0  0  0  0  0  0  0  0  0  0  0  0
   -4.4453    2.7931    0.0000 H   0  0  0  0  0  0  0  0  0  0  0  0
   -2.0173   -1.8009    0.0000 H   0  0  0  0  0  0  0  0  0  0  0  0
   -7.0977    1.3913    0.0000 H   0  0  0  0  0  0  0  0  0  0  0  0
   -4.6696   -3.2027    0.0000 H   0  0  0  0  0  0  0  0  0  0  0  0
    7.2144   -3.6472    0.0000 H   0  0  0  0  0  0  0  0  0  0  0  0
    4.2165   -3.5351    0.0000 H   0  0  0  0  0  0  0  0  0  0  0  0
    5.6594   -5.0901    0.0000 H   0  0  0  0  0  0  0  0  0  0  0  0
   -9.2779   -2.0787    0.0000 H   0  0  0  0  0  0  0  0  0  0  0  0
   -7.6819    0.4615    0.0000 H   0  0  0  0  0  0  0  0  0  0  0  0
   -9.7500   -0.0106    0.0000 H   0  0  0  0  0  0  0  0  0  0  0  0
  1 10  1  0
  1 22  1  0
  2 21  1  0
  2 23  1  0
  3  6  1  0
  3  9  1  0
  3 26  1  0
  4  5  1  0
  4  6  1  0
  4  8  2  0
  5  7  2  0
  5 11  1  0
  6 24  1  0
  6 25  1  0
  7 10  1  0
  7 13  1  0
  8 12  1  0
  8 27  1  0
  9 14  1  0
  9 28  1  0
  9 29  1  0
 10 12  2  0
 11 15  2  0
 11 30  1  0
 12 31  1  0
 13 16  2  0
 13 32  1  0
 14 17  2  0
 14 18  1  0
 15 16  1  0
 15 33  1  0
 16 34  1  0
 17 19  1  0
 17 35  1  0
 18 20  2  0
 18 36  1  0
 19 21  2  0
 19 37  1  0
 20 21  1  0
 20 38  1  0
 22 39  1  0
 22 40  1  0
 22 41  1  0
 23 42  1  0
 23 43  1  0
 23 44  1  0
M  STY  8   1 DAT   2 DAT   3 DAT   4 DAT   5 DAT   6 DAT   7 DAT   8 DAT
M  STY  8   9 DAT  10 DAT  11 DAT  12 DAT  13 DAT  14 DAT  15 DAT  16 DAT
M  STY  8  17 DAT  18 DAT  19 DAT  20 DAT  21 DAT  22 DAT  23 DAT  24 DAT
M  STY  8  25 DAT  26 DAT  27 DAT  28 DAT  29 DAT  30 DAT  31 DAT  32 DAT
M  STY  8  33 DAT  34 DAT  35 DAT  36 DAT  37 DAT  38 DAT  39 DAT  40 DAT
M  STY  4  41 DAT  42 DAT  43 DAT  44 DAT
M  SAL   1  1   1
M  SED   1 [#8&h0]
M  SAL   2  1   2
M  SED   2 [#8&h0]
M  SAL   3  1   3
M  SED   3 [#7&h0]
M  SAL   4  1   4
M  SED   4 [#6&h0]
M  SAL   5  1   5
M  SED   5 [#6&h0]
M  SAL   6  1   6
M  SED   6 [#6&h0]
M  SAL   7  1   7
M  SED   7 [#6&h0]
M  SAL   8  1   8
M  SED   8 [#6&h0]
M  SAL   9  1   9
M  SED   9 [#6&h0]
M  SAL  10  1  10
M  SED  10 [#6&h0]
M  SAL  11  1  11
M  SED  11 [#6&h0]
M  SAL  12  1  12
M  SED  12 [#6&h0]
M  SAL  13  1  13
M  SED  13 [#6&h0]
M  SAL  14  1  14
M  SED  14 [#6&h0]
M  SAL  15  1  15
M  SED  15 [#6&h0]
M  SAL  16  1  16
M  SED  16 [#6&h0]
M  SAL  17  1  17
M  SED  17 [#6&h0]
M  SAL  18  1  18
M  SED  18 [#6&h0]
M  SAL  19  1  19
M  SED  19 [#6&h0]
M  SAL  20  1  20
M  SED  20 [#6&h0]
M  SAL  21  1  21
M  SED  21 [#6&h0]
M  SAL  22  1  22
M  SED  22 [#6&h0]
M  SAL  23  1  23
M  SED  23 [#6&h0]
M  SAL  24  1  24
M  SED  24 [#1&h0]
M  SAL  25  1  25
M  SED  25 [#1&h0]
M  SAL  26  1  26
M  SED  26 [#1&h0]
M  SAL  27  1  27
M  SED  27 [#1&h0]
M  SAL  28  1  28
M  SED  28 [#1&h0]
M  SAL  29  1  29
M  SED  29 [#1&h0]
M  SAL  30  1  30
M  SED  30 [#1&h0]
M  SAL  31  1  31
M  SED  31 [#1&h0]
M  SAL  32  1  32
M  SED  32 [#1&h0]
M  SAL  33  1  33
M  SED  33 [#1&h0]
M  SAL  34  1  34
M  SED  34 [#1&h0]
M  SAL  35  1  35
M  SED  35 [#1&h0]
M  SAL  36  1  36
M  SED  36 [#1&h0]
M  SAL  37  1  37
M  SED  37 [#1&h0]
M  SAL  38  1  38
M  SED  38 [#1&h0]
M  SAL  39  1  39
M  SED  39 [#1&h0]
M  SAL  40  1  40
M  SED  40 [#1&h0]
M  SAL  41  1  41
M  SED  41 [#1&h0]
M  SAL  42  1  42
M  SED  42 [#1&h0]
M  SAL  43  1  43
M  SED  43 [#1&h0]
M  SAL  44  1  44
M  SED  44 [#1&h0]
M  END
>  <Activity>  (37) 
0.01

>  <Mapped(file=2032.csv.activities,property=Cached(PUBCHEM_COMPOUND_CID))>  (37) 
100

>  <MatchIndices>  (37) 
194 

>  <PUBCHEM_ATOM_DEF_STEREO_COUNT>  (37) 
0

>  <PUBCHEM_ATOM_UDEF_STEREO_COUNT>  (37) 
0

>  <PUBCHEM_BONDANNOTATIONS>  (37) 
11  14  8
11  17  8
12  16  8
14  16  8
15  19  8
17  20  8
18  21  8
18  22  8
19  20  8
21  23  8
22  24  8
23  25  8
24  25  8
8  12  8
8  9  8
9  11  8
9  15  8

>  <PUBCHEM_BOND_DEF_STEREO_COUNT>  (37) 
0

>  <PUBCHEM_BOND_UDEF_STEREO_COUNT>  (37) 
0

>  <PUBCHEM_CACTVS_COMPLEXITY>  (37) 
412

>  <PUBCHEM_CACTVS_HBOND_ACCEPTOR>  (37) 
7

>  <PUBCHEM_CACTVS_HBOND_DONOR>  (37) 
3

>  <PUBCHEM_CACTVS_ROTATABLE_BOND>  (37) 
7

>  <PUBCHEM_CACTVS_SUBSKEYS>  (37) 
AAADceB6OAAAAAAAAAAAAAAAAAAAAAAAAAAwYMAAAAAAAADBVAAAHgAQCAAADATBmAYyDsLABgCIAiDSCAKCCAAgIAAIiIBODIgNJiKEsRuEMChkwBGJqAeQ0PIOoAADAAAYAABAAAYAADAAAAAAAAAAAA==

>  <PUBCHEM_CACTVS_TAUTO_COUNT>  (37) 
1

>  <PUBCHEM_CACTVS_TPSA>  (37) 
105

>  <PUBCHEM_COMPONENT_COUNT>  (37) 
2

>  <PUBCHEM_COMPOUND_CANONICALIZED>  (37) 
1

>  <PUBCHEM_COMPOUND_CID>  (37) 
17367486

>  <PUBCHEM_COORDINATE_TYPE>  (37) 
1
5
255

>  <PUBCHEM_EXACT_MASS>  (37) 
397.152537

>  <PUBCHEM_HEAVY_ATOM_COUNT>  (37) 
29

>  <PUBCHEM_ISOTOPIC_ATOM_COUNT>  (37) 
0

>  <PUBCHEM_IUPAC_CAS_NAME>  (37) 
N-[(4-methoxy-1-naphthalenyl)methyl]-1-(4-methoxyphenyl)methanamine; oxalic acid

>  <PUBCHEM_IUPAC_INCHI>  (37) 
InChI=1S/C20H21NO2.C2H2O4/c1-22-17-10-7-15(8-11-17)13-21-14-16-9-12-20(23-2)19-6-4-3-5-18(16)19;3-1(4)2(5)6/h3-12,21H,13-14H2,1-2H3;(H,3,4)(H,5,6)

>  <PUBCHEM_IUPAC_INCHIKEY>  (37) 
MAIQFPYLLHLRES-UHFFFAOYSA-N

>  <PUBCHEM_IUPAC_NAME>  (37) 
N-[(4-methoxynaphthalen-1-yl)methyl]-1-(4-methoxyphenyl)methanamine; oxalic acid

>  <PUBCHEM_IUPAC_OPENEYE_NAME>  (37) 
N-[(4-methoxy-1-naphthyl)methyl]-1-(4-methoxyphenyl)methanamine; oxalic acid

>  <PUBCHEM_IUPAC_SYSTEMATIC_NAME>  (37) 
ethanedioic acid; N-[(4-methoxynaphthalen-1-yl)methyl]-1-(4-methoxyphenyl)methanamine

>  <PUBCHEM_IUPAC_TRADITIONAL_NAME>  (37) 
(4-methoxy-1-naphthyl)methyl-p-anisyl-amine; oxalic acid

>  <PUBCHEM_MOLECULAR_FORMULA>  (37) 
C22H23NO6

>  <PUBCHEM_MOLECULAR_WEIGHT>  (37) 
397.42112

>  <PUBCHEM_MONOISOTOPIC_WEIGHT>  (37) 
397.152537

>  <PUBCHEM_OPENEYE_CAN_SMILES>  (37) 
COC1=CC=C(C=C1)CNCC2=CC=C(C3=CC=CC=C23)OC.C(=O)(C(=O)O)O

>  <PUBCHEM_OPENEYE_ISO_SMILES>  (37) 
COC1=CC=C(C=C1)CNCC2=CC=C(C3=CC=CC=C23)OC.C(=O)(C(=O)O)O

>  <PUBCHEM_TOTAL_CHARGE>  (37) 
0

$$$$
Largest isolated from Written by BCL::WriteToMDL,1483198
     RDKit          2D

 43 44  0 43  0  0  0  0  0  0999 V2000
    3.0000    0.0000    0.0000 S   0  0  0  0  0  0  0  0  0  0  0  0
   -3.0000    0.0000    0.0000 S   0  0  0  0  0  0  0  0  0  0  0  0
    3.0000   -1.5000    0.0000 O   0  0  0  0  0  0  0  0  0  0  0  0
    3.0000    1.5000    0.0000 O   0  0  0  0  0  0  0  0  0  0  0  0
   -3.0000    1.5000    0.0000 O   0  0  0  0  0  0  0  0  0  0  0  0
   -3.0000   -1.5000    0.0000 O   0  0  0  0  0  0  0  0  0  0  0  0
   -0.0000    0.0000    0.0000 C   0  0  0  0  0  0  0  0  0  0  0  0
    1.5000    0.0000    0.0000 C   0  0  0  0  0  0  0  0  0  0  0  0
   -1.5000    0.0000    0.0000 C   0  0  0  0  0  0  0  0  0  0  0  0
    4.5000    0.0000    0.0000 C   0  0  0  0  0  0  0  0  0  0  0  0
   -4.5000    0.0000    0.0000 C   0  0  0  0  0  0  0  0  0  0  0  0
    5.2500   -1.2990    0.0000 C   0  0  0  0  0  0  0  0  0  0  0  0
   -5.2500    1.2990    0.0000 C   0  0  0  0  0  0  0  0  0  0  0  0
    5.2500    1.2990    0.0000 C   0  0  0  0  0  0  0  0  0  0  0  0
   -5.2500   -1.2990    0.0000 C   0  0  0  0  0  0  0  0  0  0  0  0
    7.5000    0.0000    0.0000 C   0  0  0  0  0  0  0  0  0  0  0  0
   -7.5000    0.0000    0.0000 C   0  0  0  0  0  0  0  0  0  0  0  0
    6.7500   -1.2990    0.0000 C   0  0  0  0  0  0  0  0  0  0  0  0
   -6.7500    1.2990    0.0000 C   0  0  0  0  0  0  0  0  0  0  0  0
    6.7500    1.2990    0.0000 C   0  0  0  0  0  0  0  0  0  0  0  0
   -6.7500   -1.2990    0.0000 C   0  0  0  0  0  0  0  0  0  0  0  0
   -9.0000    0.0000    0.0000 C   0  0  0  0  0  0  0  0  0  0  0  0
    9.0000    0.0000    0.0000 C   0  0  0  0  0  0  0  0  0  0  0  0
   -0.0000   -1.5000    0.0000 H   0  0  0  0  0  0  0  0  0  0  0  0
   -0.0000    1.5000    0.0000 H   0  0  0  0  0  0  0  0  0  0  0  0
    1.5000   -1.5000    0.0000 H   0  0  0  0  0  0  0  0  0  0  0  0
    1.5000    1.5000    0.0000 H   0  0  0  0  0  0  0  0  0  0  0  0
   -1.5000    1.5000    0.0000 H   0  0  0  0  0  0  0  0  0  0  0  0
   -1.5000   -1.5000    0.0000 H   0  0  0  0  0  0  0  0  0  0  0  0
    4.5000   -2.5981    0.0000 H   0  0  0  0  0  0  0  0  0  0  0  0
   -4.5000    2.5981    0.0000 H   0  0  0  0  0  0  0  0  0  0  0  0
    4.5000    2.5981    0.0000 H   0  0  0  0  0  0  0  0  0  0  0  0
   -4.5000   -2.5981    0.0000 H   0  0  0  0  0  0  0  0  0  0  0  0
    7.5000   -2.5981    0.0000 H   0  0  0  0  0  0  0  0  0  0  0  0
   -7.5000    2.5981    0.0000 H   0  0  0  0  0  0  0  0  0  0  0  0
    7.5000    2.5981    0.0000 H   0  0  0  0  0  0  0  0  0  0  0  0
   -7.5000   -2.5981    0.0000 H   0  0  0  0  0  0  0  0  0  0  0  0
   -9.0000    1.5000    0.0000 H   0  0  0  0  0  0  0  0  0  0  0  0
   -9.0000   -1.5000    0.0000 H   0  0  0  0  0  0  0  0  0  0  0  0
  -10.5000    0.0000    0.0000 H   0  0  0  0  0  0  0  0  0  0  0  0
    9.0000   -1.5000    0.0000 H   0  0  0  0  0  0  0  0  0  0  0  0
    9.0000    1.5000    0.0000 H   0  0  0  0  0  0  0  0  0  0  0  0
   10.5000    0.0000    0.0000 H   0  0  0  0  0  0  0  0  0  0  0  0
  1  3  2  0
  1  4  2  0
  1  8  1  0
  1 10  1  0
  2  5  2  0
  2  6  2  0
  2  9  1  0
  2 11  1  0
  7  8  1  0
  7  9  1  0
  7 24  1  0
  7 25  1  0
  8 26  1  0
  8 27  1  0
  9 28  1  0
  9 29  1  0
 10 12  2  0
 10 14  1  0
 11 13  2  0
 11 15  1  0
 12 18  1  0
 12 30  1  0
 13 19  1  0
 13 31  1  0
 14 20  2  0
 14 32  1  0
 15 21  2  0
 15 33  1  0
 16 18  2  0
 16 20  1  0
 16 23  1  0
 17 19  2  0
 17 21  1  0
 17 22  1  0
 18 34  1  0
 19 35  1  0
 20 36  1  0
 21 37  1  0
 22 38  1  0
 22 39  1  0
 22 40  1  0
 23 41  1  0
 23 42  1  0
 23 43  1  0
M  STY  8   1 DAT   2 DAT   3 DAT   4 DAT   5 DAT   6 DAT   7 DAT   8 DAT
M  STY  8   9 DAT  10 DAT  11 DAT  12 DAT  13 DAT  14 DAT  15 DAT  16 DAT
M  STY  8  17 DAT  18 DAT  19 DAT  20 DAT  21 DAT  22 DAT  23 DAT  24 DAT
M  STY  8  25 DAT  26 DAT  27 DAT  28 DAT  29 DAT  30 DAT  31 DAT  32 DAT
M  STY  8  33 DAT  34 DAT  35 DAT  36 DAT  37 DAT  38 DAT  39 DAT  40 DAT
M  STY  3  41 DAT  42 DAT  43 DAT
M  SAL   1  1   1
M  SED   1 [#16&h0]
M  SAL   2  1   2
M  SED   2 [#16&h0]
M  SAL   3  1   3
M  SED   3 [#8&h0]
M  SAL   4  1   4
M  SED   4 [#8&h0]
M  SAL   5  1   5
M  SED   5 [#8&h0]
M  SAL   6  1   6
M  SED   6 [#8&h0]
M  SAL   7  1   7
M  SED   7 [#6&h0]
M  SAL   8  1   8
M  SED   8 [#6&h0]
M  SAL   9  1   9
M  SED   9 [#6&h0]
M  SAL  10  1  10
M  SED  10 [#6&h0]
M  SAL  11  1  11
M  SED  11 [#6&h0]
M  SAL  12  1  12
M  SED  12 [#6&h0]
M  SAL  13  1  13
M  SED  13 [#6&h0]
M  SAL  14  1  14
M  SED  14 [#6&h0]
M  SAL  15  1  15
M  SED  15 [#6&h0]
M  SAL  16  1  16
M  SED  16 [#6&h0]
M  SAL  17  1  17
M  SED  17 [#6&h0]
M  SAL  18  1  18
M  SED  18 [#6&h0]
M  SAL  19  1  19
M  SED  19 [#6&h0]
M  SAL  20  1  20
M  SED  20 [#6&h0]
M  SAL  21  1  21
M  SED  21 [#6&h0]
M  SAL  22  1  22
M  SED  22 [#6&h0]
M  SAL  23  1  23
M  SED  23 [#6&h0]
M  SAL  24  1  24
M  SED  24 [#1&h0]
M  SAL  25  1  25
M  SED  25 [#1&h0]
M  SAL  26  1  26
M  SED  26 [#1&h0]
M  SAL  27  1  27
M  SED  27 [#1&h0]
M  SAL  28  1  28
M  SED  28 [#1&h0]
M  SAL  29  1  29
M  SED  29 [#1&h0]
M  SAL  30  1  30
M  SED  30 [#1&h0]
M  SAL  31  1  31
M  SED  31 [#1&h0]
M  SAL  32  1  32
M  SED  32 [#1&h0]
M  SAL  33  1  33
M  SED  33 [#1&h0]
M  SAL  34  1  34
M  SED  34 [#1&h0]
M  SAL  35  1  35
M  SED  35 [#1&h0]
M  SAL  36  1  36
M  SED  36 [#1&h0]
M  SAL  37  1  37
M  SED  37 [#1&h0]
M  SAL  38  1  38
M  SED  38 [#1&h0]
M  SAL  39  1  39
M  SED  39 [#1&h0]
M  SAL  40  1  40
M  SED  40 [#1&h0]
M  SAL  41  1  41
M  SED  41 [#1&h0]
M  SAL  42  1  42
M  SED  42 [#1&h0]
M  SAL  43  1  43
M  SED  43 [#1&h0]
M  END
>  <Activity>  (38) 
0.01

>  <Mapped(file=2032.csv.activities,property=Cached(PUBCHEM_COMPOUND_CID))>  (38) 
100

>  <MatchIndices>  (38) 
163 

>  <PUBCHEM_ATOM_DEF_STEREO_COUNT>  (38) 
0

>  <PUBCHEM_ATOM_UDEF_STEREO_COUNT>  (38) 
0

>  <PUBCHEM_BONDANNOTATIONS>  (38) 
10  12  8
10  14  8
11  13  8
11  15  8
12  18  8
13  19  8
14  20  8
15  21  8
16  18  8
16  20  8
17  19  8
17  21  8

>  <PUBCHEM_BOND_DEF_STEREO_COUNT>  (38) 
0

>  <PUBCHEM_BOND_UDEF_STEREO_COUNT>  (38) 
0

>  <PUBCHEM_CACTVS_COMPLEXITY>  (38) 
501

>  <PUBCHEM_CACTVS_HBOND_ACCEPTOR>  (38) 
4

>  <PUBCHEM_CACTVS_HBOND_DONOR>  (38) 
0

>  <PUBCHEM_CACTVS_ROTATABLE_BOND>  (38) 
6

>  <PUBCHEM_CACTVS_SUBSKEYS>  (38) 
AAADceB4OABgAAAAAAAAAAAAAAAAAAAAAAAwYAAAAAAAAAABQAAAGAQAAAAADACEWACyAYAAAAqAAiBCAHBCAAAgCBAIiBgAAIgIICKgERCAIAAggAAoiAcAgAAOEAAAAAAAAAAgAAAAAAAAAAAAAAAAAA==

>  <PUBCHEM_CACTVS_TAUTO_COUNT>  (38) 
1

>  <PUBCHEM_CACTVS_TPSA>  (38) 
85

>  <PUBCHEM_COMPONENT_COUNT>  (38) 
1

>  <PUBCHEM_COMPOUND_CANONICALIZED>  (38) 
1

>  <PUBCHEM_COMPOUND_CID>  (38) 
1483198

>  <PUBCHEM_COORDINATE_TYPE>  (38) 
1
5
255

>  <PUBCHEM_EXACT_MASS>  (38) 
352.080301

>  <PUBCHEM_HEAVY_ATOM_COUNT>  (38) 
23

>  <PUBCHEM_ISOTOPIC_ATOM_COUNT>  (38) 
0

>  <PUBCHEM_IUPAC_CAS_NAME>  (38) 
1-methyl-4-[3-(4-methylphenyl)sulfonylpropylsulfonyl]benzene

>  <PUBCHEM_IUPAC_INCHI>  (38) 
InChI=1S/C17H20O4S2/c1-14-4-8-16(9-5-14)22(18,19)12-3-13-23(20,21)17-10-6-15(2)7-11-17/h4-11H,3,12-13H2,1-2H3

>  <PUBCHEM_IUPAC_INCHIKEY>  (38) 
CLTWZERGIYDXHV-UHFFFAOYSA-N

>  <PUBCHEM_IUPAC_NAME>  (38) 
1-methyl-4-[3-(4-methylphenyl)sulfonylpropylsulfonyl]benzene

>  <PUBCHEM_IUPAC_OPENEYE_NAME>  (38) 
1-methyl-4-[3-(p-tolylsulfonyl)propylsulfonyl]benzene

>  <PUBCHEM_IUPAC_SYSTEMATIC_NAME>  (38) 
1-methyl-4-[3-(4-methylphenyl)sulfonylpropylsulfonyl]benzene

>  <PUBCHEM_IUPAC_TRADITIONAL_NAME>  (38) 
1-methyl-4-(3-tosylpropylsulfonyl)benzene

>  <PUBCHEM_MOLECULAR_FORMULA>  (38) 
C17H20O4S2

>  <PUBCHEM_MOLECULAR_WEIGHT>  (38) 
352.4683

>  <PUBCHEM_MONOISOTOPIC_WEIGHT>  (38) 
352.080301

>  <PUBCHEM_OPENEYE_CAN_SMILES>  (38) 
CC1=CC=C(C=C1)S(=O)(=O)CCCS(=O)(=O)C2=CC=C(C=C2)C

>  <PUBCHEM_OPENEYE_ISO_SMILES>  (38) 
CC1=CC=C(C=C1)S(=O)(=O)CCCS(=O)(=O)C2=CC=C(C=C2)C

>  <PUBCHEM_TOTAL_CHARGE>  (38) 
0

>  <PUBCHEM_XLOGP3_AA>  (38) 
3.2

$$$$
Largest isolated from Written by BCL::WriteToMDL,715695
     RDKit          2D

 38 40  0 38  0  0  0  0  0  0999 V2000
    0.5716    1.4275    0.0000 N   0  0  0  0  0  0  0  0  0  0  0  0
   -2.6932   -1.6693    0.0000 N   0  0  0  0  0  0  0  0  0  0  0  0
   -1.9548    0.8216    0.0000 C   0  0  0  0  0  0  0  0  0  0  0  0
   -0.5167    0.3953    0.0000 C   0  0  0  0  0  0  0  0  0  0  0  0
   -3.0431   -0.2107    0.0000 C   0  0  0  0  0  0  0  0  0  0  0  0
   -4.4812    0.2156    0.0000 C   0  0  0  0  0  0  0  0  0  0  0  0
   -0.1668   -1.0634    0.0000 C   0  0  0  0  0  0  0  0  0  0  0  0
   -2.3046    2.2802    0.0000 C   0  0  0  0  0  0  0  0  0  0  0  0
   -1.2551   -2.0957    0.0000 C   0  0  0  0  0  0  0  0  0  0  0  0
    2.0098    1.0012    0.0000 C   0  0  0  0  0  0  0  0  0  0  0  0
   -4.8311    1.6743    0.0000 C   0  0  0  0  0  0  0  0  0  0  0  0
   -3.7428    2.7066    0.0000 C   0  0  0  0  0  0  0  0  0  0  0  0
   -5.5695   -0.8166    0.0000 C   0  0  0  0  0  0  0  0  0  0  0  0
    3.0981    2.0335    0.0000 C   0  0  0  0  0  0  0  0  0  0  0  0
    2.3596   -0.4574    0.0000 C   0  0  0  0  0  0  0  0  0  0  0  0
   -0.9053   -3.5543    0.0000 C   0  0  0  0  0  0  0  0  0  0  0  0
    4.8860    0.1485    0.0000 C   0  0  0  0  0  0  0  0  0  0  0  0
    4.5362    1.6072    0.0000 C   0  0  0  0  0  0  0  0  0  0  0  0
    3.7977   -0.8838    0.0000 C   0  0  0  0  0  0  0  0  0  0  0  0
    6.3242   -0.2778    0.0000 C   0  0  0  0  0  0  0  0  0  0  0  0
    0.7356   -1.4560    0.0000 H   0  0  0  0  0  0  0  0  0  0  0  0
    0.2218    2.8862    0.0000 H   0  0  0  0  0  0  0  0  0  0  0  0
   -1.2163    3.3125    0.0000 H   0  0  0  0  0  0  0  0  0  0  0  0
   -6.2692    2.1006    0.0000 H   0  0  0  0  0  0  0  0  0  0  0  0
   -4.0926    4.1652    0.0000 H   0  0  0  0  0  0  0  0  0  0  0  0
   -6.6018    0.2716    0.0000 H   0  0  0  0  0  0  0  0  0  0  0  0
   -4.5372   -1.9049    0.0000 H   0  0  0  0  0  0  0  0  0  0  0  0
   -6.6578   -1.8489    0.0000 H   0  0  0  0  0  0  0  0  0  0  0  0
    2.7482    3.4921    0.0000 H   0  0  0  0  0  0  0  0  0  0  0  0
    1.7335   -1.2167    0.0000 H   0  0  0  0  0  0  0  0  0  0  0  0
   -2.3639   -3.9041    0.0000 H   0  0  0  0  0  0  0  0  0  0  0  0
    0.5534   -3.2045    0.0000 H   0  0  0  0  0  0  0  0  0  0  0  0
   -0.5554   -5.0129    0.0000 H   0  0  0  0  0  0  0  0  0  0  0  0
    5.6245    2.6394    0.0000 H   0  0  0  0  0  0  0  0  0  0  0  0
    4.1476   -2.3424    0.0000 H   0  0  0  0  0  0  0  0  0  0  0  0
    6.7505    1.1603    0.0000 H   0  0  0  0  0  0  0  0  0  0  0  0
    5.8978   -1.7160    0.0000 H   0  0  0  0  0  0  0  0  0  0  0  0
    7.7623   -0.7042    0.0000 H   0  0  0  0  0  0  0  0  0  0  0  0
  1  4  1  0
  1 10  1  0
  1 22  1  0
  2  5  2  0
  2  9  1  0
  3  4  2  0
  3  5  1  0
  3  8  1  0
  4  7  1  0
  5  6  1  0
  6 11  2  0
  6 13  1  0
  7  9  2  0
  7 21  1  0
  8 12  2  0
  8 23  1  0
  9 16  1  0
 10 14  2  0
 10 15  1  0
 11 12  1  0
 11 24  1  0
 12 25  1  0
 13 26  1  0
 13 27  1  0
 13 28  1  0
 14 18  1  0
 14 29  1  0
 15 19  2  0
 15 30  1  0
 16 31  1  0
 16 32  1  0
 16 33  1  0
 17 18  2  0
 17 19  1  0
 17 20  1  0
 18 34  1  0
 19 35  1  0
 20 36  1  0
 20 37  1  0
 20 38  1  0
M  STY  8   1 DAT   2 DAT   3 DAT   4 DAT   5 DAT   6 DAT   7 DAT   8 DAT
M  STY  8   9 DAT  10 DAT  11 DAT  12 DAT  13 DAT  14 DAT  15 DAT  16 DAT
M  STY  8  17 DAT  18 DAT  19 DAT  20 DAT  21 DAT  22 DAT  23 DAT  24 DAT
M  STY  8  25 DAT  26 DAT  27 DAT  28 DAT  29 DAT  30 DAT  31 DAT  32 DAT
M  STY  6  33 DAT  34 DAT  35 DAT  36 DAT  37 DAT  38 DAT
M  SAL   1  1   1
M  SED   1 [#7&h0]
M  SAL   2  1   2
M  SED   2 [#7&h0]
M  SAL   3  1   3
M  SED   3 [#6&h0]
M  SAL   4  1   4
M  SED   4 [#6&h0]
M  SAL   5  1   5
M  SED   5 [#6&h0]
M  SAL   6  1   6
M  SED   6 [#6&h0]
M  SAL   7  1   7
M  SED   7 [#6&h0]
M  SAL   8  1   8
M  SED   8 [#6&h0]
M  SAL   9  1   9
M  SED   9 [#6&h0]
M  SAL  10  1  10
M  SED  10 [#6&h0]
M  SAL  11  1  11
M  SED  11 [#6&h0]
M  SAL  12  1  12
M  SED  12 [#6&h0]
M  SAL  13  1  13
M  SED  13 [#6&h0]
M  SAL  14  1  14
M  SED  14 [#6&h0]
M  SAL  15  1  15
M  SED  15 [#6&h0]
M  SAL  16  1  16
M  SED  16 [#6&h0]
M  SAL  17  1  17
M  SED  17 [#6&h0]
M  SAL  18  1  18
M  SED  18 [#6&h0]
M  SAL  19  1  19
M  SED  19 [#6&h0]
M  SAL  20  1  20
M  SED  20 [#6&h0]
M  SAL  21  1  21
M  SED  21 [#1&h0]
M  SAL  22  1  22
M  SED  22 [#1&h0]
M  SAL  23  1  23
M  SED  23 [#1&h0]
M  SAL  24  1  24
M  SED  24 [#1&h0]
M  SAL  25  1  25
M  SED  25 [#1&h0]
M  SAL  26  1  26
M  SED  26 [#1&h0]
M  SAL  27  1  27
M  SED  27 [#1&h0]
M  SAL  28  1  28
M  SED  28 [#1&h0]
M  SAL  29  1  29
M  SED  29 [#1&h0]
M  SAL  30  1  30
M  SED  30 [#1&h0]
M  SAL  31  1  31
M  SED  31 [#1&h0]
M  SAL  32  1  32
M  SED  32 [#1&h0]
M  SAL  33  1  33
M  SED  33 [#1&h0]
M  SAL  34  1  34
M  SED  34 [#1&h0]
M  SAL  35  1  35
M  SED  35 [#1&h0]
M  SAL  36  1  36
M  SED  36 [#1&h0]
M  SAL  37  1  37
M  SED  37 [#1&h0]
M  SAL  38  1  38
M  SED  38 [#1&h0]
M  END
>  <Activity>  (39) 
0.01

>  <Mapped(file=2032.csv.activities,property=Cached(PUBCHEM_COMPOUND_CID))>  (39) 
100

>  <MatchIndices>  (39) 
26 

>  <PUBCHEM_ATOM_DEF_STEREO_COUNT>  (39) 
0

>  <PUBCHEM_ATOM_UDEF_STEREO_COUNT>  (39) 
0

>  <PUBCHEM_BONDANNOTATIONS>  (39) 
10  14  8
10  15  8
11  12  8
14  18  8
15  19  8
17  18  8
17  19  8
2  5  8
2  9  8
3  4  8
3  5  8
3  8  8
4  7  8
5  6  8
6  11  8
7  9  8
8  12  8

>  <PUBCHEM_BOND_DEF_STEREO_COUNT>  (39) 
0

>  <PUBCHEM_BOND_UDEF_STEREO_COUNT>  (39) 
0

>  <PUBCHEM_CACTVS_COMPLEXITY>  (39) 
309

>  <PUBCHEM_CACTVS_HBOND_ACCEPTOR>  (39) 
2

>  <PUBCHEM_CACTVS_HBOND_DONOR>  (39) 
1

>  <PUBCHEM_CACTVS_ROTATABLE_BOND>  (39) 
2

>  <PUBCHEM_CACTVS_SUBSKEYS>  (39) 
AAADceB7AAAAAAAAAAAAAAAAAAAAAAAAAAA8YIAAAAAAAACx9AAAHAAQAAAADAiBHgAywPLIEACgAyRiRACCgCAhAiAImCAwZJgIIOLA0dGEJAhgkADIyAcQgMAOCAACAAACAAAQAAQAAAQAAAAAAAAAAA==

>  <PUBCHEM_CACTVS_TAUTO_COUNT>  (39) 
10

>  <PUBCHEM_CACTVS_TPSA>  (39) 
24.9

>  <PUBCHEM_COMPONENT_COUNT>  (39) 
1

>  <PUBCHEM_COMPOUND_CANONICALIZED>  (39) 
1

>  <PUBCHEM_COMPOUND_CID>  (39) 
715695

>  <PUBCHEM_COORDINATE_TYPE>  (39) 
1
5
255

>  <PUBCHEM_EXACT_MASS>  (39) 
262.146999

>  <PUBCHEM_HEAVY_ATOM_COUNT>  (39) 
20

>  <PUBCHEM_ISOTOPIC_ATOM_COUNT>  (39) 
0

>  <PUBCHEM_IUPAC_CAS_NAME>  (39) 
2,8-dimethyl-N-(4-methylphenyl)-4-quinolinamine

>  <PUBCHEM_IUPAC_INCHI>  (39) 
InChI=1S/C18H18N2/c1-12-7-9-15(10-8-12)20-17-11-14(3)19-18-13(2)5-4-6-16(17)18/h4-11H,1-3H3,(H,19,20)

>  <PUBCHEM_IUPAC_INCHIKEY>  (39) 
LMBGOBJQESYQAC-UHFFFAOYSA-N

>  <PUBCHEM_IUPAC_NAME>  (39) 
2,8-dimethyl-N-(4-methylphenyl)quinolin-4-amine

>  <PUBCHEM_IUPAC_OPENEYE_NAME>  (39) 
2,8-dimethyl-N-(p-tolyl)quinolin-4-amine

>  <PUBCHEM_IUPAC_SYSTEMATIC_NAME>  (39) 
2,8-dimethyl-N-(4-methylphenyl)quinolin-4-amine

>  <PUBCHEM_IUPAC_TRADITIONAL_NAME>  (39) 
(2,8-dimethyl-4-quinolyl)-(p-tolyl)amine

>  <PUBCHEM_MOLECULAR_FORMULA>  (39) 
C18H18N2

>  <PUBCHEM_MOLECULAR_WEIGHT>  (39) 
262.34892

>  <PUBCHEM_MONOISOTOPIC_WEIGHT>  (39) 
262.146999

>  <PUBCHEM_OPENEYE_CAN_SMILES>  (39) 
CC1=CC=C(C=C1)NC2=CC(=NC3=C2C=CC=C3C)C

>  <PUBCHEM_OPENEYE_ISO_SMILES>  (39) 
CC1=CC=C(C=C1)NC2=CC(=NC3=C2C=CC=C3C)C

>  <PUBCHEM_TOTAL_CHARGE>  (39) 
0

>  <PUBCHEM_XLOGP3_AA>  (39) 
4.9

$$$$
Largest isolated from Written by BCL::WriteToMDL,6464138
     RDKit          2D

 38 39  0 38  0  0  0  0  0  0999 V2000
    6.7901    1.6626    0.0000 O   0  0  0  0  0  0  0  0  0  0  0  0
    0.1803   -1.8816    0.0000 N   0  0  0  0  0  0  0  0  0  0  0  0
    1.5022   -1.1728    0.0000 C   0  0  0  0  0  0  0  0  0  0  0  0
    2.8242   -0.4639    0.0000 C   0  0  0  0  0  0  0  0  0  0  0  0
   -1.0945   -1.0912    0.0000 C   0  0  0  0  0  0  0  0  0  0  0  0
    4.0990   -1.2544    0.0000 C   0  0  0  0  0  0  0  0  0  0  0  0
    2.8713    1.0353    0.0000 C   0  0  0  0  0  0  0  0  0  0  0  0
   -2.3694   -0.3007    0.0000 C   0  0  0  0  0  0  0  0  0  0  0  0
    5.4210   -0.5455    0.0000 C   0  0  0  0  0  0  0  0  0  0  0  0
    4.1933    1.7442    0.0000 C   0  0  0  0  0  0  0  0  0  0  0  0
    5.4681    0.9537    0.0000 C   0  0  0  0  0  0  0  0  0  0  0  0
   -3.6913   -1.0096    0.0000 C   0  0  0  0  0  0  0  0  0  0  0  0
   -4.9662   -0.2191    0.0000 C   0  0  0  0  0  0  0  0  0  0  0  0
   -4.9191    1.2801    0.0000 C   0  0  0  0  0  0  0  0  0  0  0  0
   -6.2881   -0.9280    0.0000 C   0  0  0  0  0  0  0  0  0  0  0  0
   -6.1939    2.0705    0.0000 C   0  0  0  0  0  0  0  0  0  0  0  0
   -7.5630   -0.1375    0.0000 C   0  0  0  0  0  0  0  0  0  0  0  0
   -7.5159    1.3617    0.0000 C   0  0  0  0  0  0  0  0  0  0  0  0
    8.0649    0.8721    0.0000 C   0  0  0  0  0  0  0  0  0  0  0  0
    2.2111   -2.4947    0.0000 H   0  0  0  0  0  0  0  0  0  0  0  0
    0.7934    0.1492    0.0000 H   0  0  0  0  0  0  0  0  0  0  0  0
    0.1332   -3.3809    0.0000 H   0  0  0  0  0  0  0  0  0  0  0  0
   -1.8850   -2.3660    0.0000 H   0  0  0  0  0  0  0  0  0  0  0  0
   -0.3041    0.1837    0.0000 H   0  0  0  0  0  0  0  0  0  0  0  0
    4.0519   -2.7536    0.0000 H   0  0  0  0  0  0  0  0  0  0  0  0
    1.5965    1.8258    0.0000 H   0  0  0  0  0  0  0  0  0  0  0  0
   -2.3223    1.1985    0.0000 H   0  0  0  0  0  0  0  0  0  0  0  0
    6.6958   -1.3359    0.0000 H   0  0  0  0  0  0  0  0  0  0  0  0
    4.2404    3.2434    0.0000 H   0  0  0  0  0  0  0  0  0  0  0  0
   -3.7385   -2.5088    0.0000 H   0  0  0  0  0  0  0  0  0  0  0  0
   -3.5971    1.9890    0.0000 H   0  0  0  0  0  0  0  0  0  0  0  0
   -6.3352   -2.4272    0.0000 H   0  0  0  0  0  0  0  0  0  0  0  0
   -6.1468    3.5698    0.0000 H   0  0  0  0  0  0  0  0  0  0  0  0
   -8.8849   -0.8464    0.0000 H   0  0  0  0  0  0  0  0  0  0  0  0
   -8.7907    2.1521    0.0000 H   0  0  0  0  0  0  0  0  0  0  0  0
    8.8553    2.1470    0.0000 H   0  0  0  0  0  0  0  0  0  0  0  0
    7.2745   -0.4027    0.0000 H   0  0  0  0  0  0  0  0  0  0  0  0
    9.3397    0.0817    0.0000 H   0  0  0  0  0  0  0  0  0  0  0  0
  1 11  1  0
  1 19  1  0
  2  3  1  0
  2  5  1  0
  2 22  1  0
  3  4  1  0
  3 20  1  0
  3 21  1  0
  4  6  2  0
  4  7  1  0
  5  8  1  0
  5 23  1  0
  5 24  1  0
  6  9  1  0
  6 25  1  0
  7 10  2  0
  7 26  1  0
  8 12  2  0
  8 27  1  0
  9 11  2  0
  9 28  1  0
 10 11  1  0
 10 29  1  0
 12 13  1  0
 12 30  1  0
 13 14  2  0
 13 15  1  0
 14 16  1  0
 14 31  1  0
 15 17  2  0
 15 32  1  0
 16 18  2  0
 16 33  1  0
 17 18  1  0
 17 34  1  0
 18 35  1  0
 19 36  1  0
 19 37  1  0
 19 38  1  0
M  STY  8   1 DAT   2 DAT   3 DAT   4 DAT   5 DAT   6 DAT   7 DAT   8 DAT
M  STY  8   9 DAT  10 DAT  11 DAT  12 DAT  13 DAT  14 DAT  15 DAT  16 DAT
M  STY  8  17 DAT  18 DAT  19 DAT  20 DAT  21 DAT  22 DAT  23 DAT  24 DAT
M  STY  8  25 DAT  26 DAT  27 DAT  28 DAT  29 DAT  30 DAT  31 DAT  32 DAT
M  STY  6  33 DAT  34 DAT  35 DAT  36 DAT  37 DAT  38 DAT
M  SAL   1  1   1
M  SED   1 [#8&h0]
M  SAL   2  1   2
M  SED   2 [#7&h0]
M  SAL   3  1   3
M  SED   3 [#6&h0]
M  SAL   4  1   4
M  SED   4 [#6&h0]
M  SAL   5  1   5
M  SED   5 [#6&h0]
M  SAL   6  1   6
M  SED   6 [#6&h0]
M  SAL   7  1   7
M  SED   7 [#6&h0]
M  SAL   8  1   8
M  SED   8 [#6&h0]
M  SAL   9  1   9
M  SED   9 [#6&h0]
M  SAL  10  1  10
M  SED  10 [#6&h0]
M  SAL  11  1  11
M  SED  11 [#6&h0]
M  SAL  12  1  12
M  SED  12 [#6&h0]
M  SAL  13  1  13
M  SED  13 [#6&h0]
M  SAL  14  1  14
M  SED  14 [#6&h0]
M  SAL  15  1  15
M  SED  15 [#6&h0]
M  SAL  16  1  16
M  SED  16 [#6&h0]
M  SAL  17  1  17
M  SED  17 [#6&h0]
M  SAL  18  1  18
M  SED  18 [#6&h0]
M  SAL  19  1  19
M  SED  19 [#6&h0]
M  SAL  20  1  20
M  SED  20 [#1&h0]
M  SAL  21  1  21
M  SED  21 [#1&h0]
M  SAL  22  1  22
M  SED  22 [#1&h0]
M  SAL  23  1  23
M  SED  23 [#1&h0]
M  SAL  24  1  24
M  SED  24 [#1&h0]
M  SAL  25  1  25
M  SED  25 [#1&h0]
M  SAL  26  1  26
M  SED  26 [#1&h0]
M  SAL  27  1  27
M  SED  27 [#1&h0]
M  SAL  28  1  28
M  SED  28 [#1&h0]
M  SAL  29  1  29
M  SED  29 [#1&h0]
M  SAL  30  1  30
M  SED  30 [#1&h0]
M  SAL  31  1  31
M  SED  31 [#1&h0]
M  SAL  32  1  32
M  SED  32 [#1&h0]
M  SAL  33  1  33
M  SED  33 [#1&h0]
M  SAL  34  1  34
M  SED  34 [#1&h0]
M  SAL  35  1  35
M  SED  35 [#1&h0]
M  SAL  36  1  36
M  SED  36 [#1&h0]
M  SAL  37  1  37
M  SED  37 [#1&h0]
M  SAL  38  1  38
M  SED  38 [#1&h0]
M  END
>  <Activity>  (40) 
0.01

>  <Mapped(file=2032.csv.activities,property=Cached(PUBCHEM_COMPOUND_CID))>  (40) 
100

>  <MatchIndices>  (40) 
8 

>  <PUBCHEM_ATOM_DEF_STEREO_COUNT>  (40) 
0

>  <PUBCHEM_ATOM_UDEF_STEREO_COUNT>  (40) 
0

>  <PUBCHEM_BONDANNOTATIONS>  (40) 
10  12  8
11  12  8
14  15  8
14  16  8
15  17  8
16  18  8
17  19  8
18  19  8
5  7  8
5  8  8
7  10  8
8  11  8

>  <PUBCHEM_BOND_DEF_STEREO_COUNT>  (40) 
1

>  <PUBCHEM_BOND_UDEF_STEREO_COUNT>  (40) 
0

>  <PUBCHEM_CACTVS_COMPLEXITY>  (40) 
250

>  <PUBCHEM_CACTVS_HBOND_ACCEPTOR>  (40) 
2

>  <PUBCHEM_CACTVS_HBOND_DONOR>  (40) 
2

>  <PUBCHEM_CACTVS_ROTATABLE_BOND>  (40) 
6

>  <PUBCHEM_CACTVS_SUBSKEYS>  (40) 
AAADceB6IAAEAAAAAAAAAAAAAAAAAAAAAAAwYAAAAAAAAAABQAAAHgAQAAAADATBmAYyBoLABACAAiBCAACCCAAgIAAIiIAODIgMJiKEsRuEMChk0BGIqAeQ0AIOIAAAAAAAAABAAAAAAAAAAAAAAAAAAA==

>  <PUBCHEM_CACTVS_TAUTO_COUNT>  (40) 
1

>  <PUBCHEM_CACTVS_TPSA>  (40) 
21.3

>  <PUBCHEM_COMPONENT_COUNT>  (40) 
2

>  <PUBCHEM_COMPOUND_CANONICALIZED>  (40) 
1

>  <PUBCHEM_COMPOUND_CID>  (40) 
6464138

>  <PUBCHEM_COORDINATE_TYPE>  (40) 
1
5
255

>  <PUBCHEM_EXACT_MASS>  (40) 
289.123342

>  <PUBCHEM_HEAVY_ATOM_COUNT>  (40) 
20

>  <PUBCHEM_ISOTOPIC_ATOM_COUNT>  (40) 
0

>  <PUBCHEM_IUPAC_CAS_NAME>  (40) 
(E)-N-[(4-methoxyphenyl)methyl]-3-phenyl-2-propen-1-amine hydrochloride

>  <PUBCHEM_IUPAC_INCHI>  (40) 
InChI=1S/C17H19NO.ClH/c1-19-17-11-9-16(10-12-17)14-18-13-5-8-15-6-3-2-4-7-15;/h2-12,18H,13-14H2,1H3;1H/b8-5+;

>  <PUBCHEM_IUPAC_INCHIKEY>  (40) 
ZCFJNZIWAPPATE-HAAWTFQLSA-N

>  <PUBCHEM_IUPAC_NAME>  (40) 
(E)-N-[(4-methoxyphenyl)methyl]-3-phenylprop-2-en-1-amine hydrochloride

>  <PUBCHEM_IUPAC_OPENEYE_NAME>  (40) 
(E)-N-[(4-methoxyphenyl)methyl]-3-phenyl-prop-2-en-1-amine hydrochloride

>  <PUBCHEM_IUPAC_SYSTEMATIC_NAME>  (40) 
(E)-N-[(4-methoxyphenyl)methyl]-3-phenyl-prop-2-en-1-amine hydrochloride

>  <PUBCHEM_IUPAC_TRADITIONAL_NAME>  (40) 
[(E)-cinnamyl]-p-anisyl-amine hydrochloride

>  <PUBCHEM_MOLECULAR_FORMULA>  (40) 
C17H20ClNO

>  <PUBCHEM_MOLECULAR_WEIGHT>  (40) 
289.7998

>  <PUBCHEM_MONOISOTOPIC_WEIGHT>  (40) 
289.123342

>  <PUBCHEM_OPENEYE_CAN_SMILES>  (40) 
COC1=CC=C(C=C1)CNCC=CC2=CC=CC=C2.Cl

>  <PUBCHEM_OPENEYE_ISO_SMILES>  (40) 
COC1=CC=C(C=C1)CNC/C=C/C2=CC=CC=C2.Cl

>  <PUBCHEM_TOTAL_CHARGE>  (40) 
0

$$$$
Largest isolated from Written by BCL::WriteToMDL,2924017
     RDKit          2D

 52 54  0 52  0  0  0  0  0  0999 V2000
    3.1236    0.3383    0.0000 O   0  0  0  0  0  0  0  0  0  0  0  0
   -4.3749    0.1860    0.0000 N   0  0  0  0  0  0  0  0  0  0  0  0
   -7.3743    0.1250    0.0000 N   0  0  0  0  0  0  0  0  0  0  0  0
   -5.0983   -1.1280    0.0000 C   0  0  0  0  0  0  0  0  0  0  0  0
   -5.1511    1.4695    0.0000 C   0  0  0  0  0  0  0  0  0  0  0  0
   -6.6508    1.4390    0.0000 C   0  0  0  0  0  0  0  0  0  0  0  0
   -6.5980   -1.1585    0.0000 C   0  0  0  0  0  0  0  0  0  0  0  0
   -2.8752    0.2164    0.0000 C   0  0  0  0  0  0  0  0  0  0  0  0
   -1.3755    0.2469    0.0000 C   0  0  0  0  0  0  0  0  0  0  0  0
    0.1242    0.2774    0.0000 C   0  0  0  0  0  0  0  0  0  0  0  0
   -8.8739    0.0946    0.0000 C   0  0  0  0  0  0  0  0  0  0  0  0
    1.6239    0.3078    0.0000 C   0  0  0  0  0  0  0  0  0  0  0  0
    3.8998   -0.9452    0.0000 C   0  0  0  0  0  0  0  0  0  0  0  0
    5.3995   -0.9148    0.0000 C   0  0  0  0  0  0  0  0  0  0  0  0
    3.1764   -2.2592    0.0000 C   0  0  0  0  0  0  0  0  0  0  0  0
    6.1230    0.3992    0.0000 C   0  0  0  0  0  0  0  0  0  0  0  0
    6.1757   -2.1983    0.0000 C   0  0  0  0  0  0  0  0  0  0  0  0
    3.9526   -3.5428    0.0000 C   0  0  0  0  0  0  0  0  0  0  0  0
    5.4523   -3.5123    0.0000 C   0  0  0  0  0  0  0  0  0  0  0  0
    7.6227    0.4297    0.0000 C   0  0  0  0  0  0  0  0  0  0  0  0
    5.3467    1.6828    0.0000 C   0  0  0  0  0  0  0  0  0  0  0  0
    8.3461    1.7437    0.0000 C   0  0  0  0  0  0  0  0  0  0  0  0
    6.0702    2.9968    0.0000 C   0  0  0  0  0  0  0  0  0  0  0  0
    7.5699    3.0273    0.0000 C   0  0  0  0  0  0  0  0  0  0  0  0
   -5.4415    2.9411    0.0000 H   0  0  0  0  0  0  0  0  0  0  0  0
   -3.8287    2.1775    0.0000 H   0  0  0  0  0  0  0  0  0  0  0  0
   -3.7483   -1.7818    0.0000 H   0  0  0  0  0  0  0  0  0  0  0  0
   -5.3287   -2.6102    0.0000 H   0  0  0  0  0  0  0  0  0  0  0  0
   -8.0008    2.0928    0.0000 H   0  0  0  0  0  0  0  0  0  0  0  0
   -6.4204    2.9212    0.0000 H   0  0  0  0  0  0  0  0  0  0  0  0
   -6.3076   -2.6301    0.0000 H   0  0  0  0  0  0  0  0  0  0  0  0
   -7.9204   -1.8665    0.0000 H   0  0  0  0  0  0  0  0  0  0  0  0
   -2.6621   -1.2684    0.0000 H   0  0  0  0  0  0  0  0  0  0  0  0
   -2.7226    1.7087    0.0000 H   0  0  0  0  0  0  0  0  0  0  0  0
   -1.4060    1.7466    0.0000 H   0  0  0  0  0  0  0  0  0  0  0  0
   -1.3450   -1.2528    0.0000 H   0  0  0  0  0  0  0  0  0  0  0  0
    0.0937    1.7771    0.0000 H   0  0  0  0  0  0  0  0  0  0  0  0
    0.1547   -1.2223    0.0000 H   0  0  0  0  0  0  0  0  0  0  0  0
   -9.0870    1.5794    0.0000 H   0  0  0  0  0  0  0  0  0  0  0  0
   -9.0265   -1.3976    0.0000 H   0  0  0  0  0  0  0  0  0  0  0  0
  -10.3736    0.0641    0.0000 H   0  0  0  0  0  0  0  0  0  0  0  0
    1.6544   -1.1918    0.0000 H   0  0  0  0  0  0  0  0  0  0  0  0
    1.5934    1.8075    0.0000 H   0  0  0  0  0  0  0  0  0  0  0  0
    1.6767   -2.2897    0.0000 H   0  0  0  0  0  0  0  0  0  0  0  0
    7.6754   -2.1678    0.0000 H   0  0  0  0  0  0  0  0  0  0  0  0
    3.2291   -4.8568    0.0000 H   0  0  0  0  0  0  0  0  0  0  0  0
    6.2285   -4.7958    0.0000 H   0  0  0  0  0  0  0  0  0  0  0  0
    8.3989   -0.8538    0.0000 H   0  0  0  0  0  0  0  0  0  0  0  0
    3.8470    1.6523    0.0000 H   0  0  0  0  0  0  0  0  0  0  0  0
    9.8458    1.7742    0.0000 H   0  0  0  0  0  0  0  0  0  0  0  0
    5.2940    4.2803    0.0000 H   0  0  0  0  0  0  0  0  0  0  0  0
    8.2933    4.3413    0.0000 H   0  0  0  0  0  0  0  0  0  0  0  0
  1 12  1  0
  1 13  1  0
  2  4  1  0
  2  5  1  0
  2  8  1  0
  3  6  1  0
  3  7  1  0
  3 11  1  0
  4  7  1  0
  4 27  1  0
  4 28  1  0
  5  6  1  0
  5 25  1  0
  5 26  1  0
  6 29  1  0
  6 30  1  0
  7 31  1  0
  7 32  1  0
  8  9  1  0
  8 33  1  0
  8 34  1  0
  9 10  1  0
  9 35  1  0
  9 36  1  0
 10 12  1  0
 10 37  1  0
 10 38  1  0
 11 39  1  0
 11 40  1  0
 11 41  1  0
 12 42  1  0
 12 43  1  0
 13 14  1  0
 13 15  2  0
 14 16  1  0
 14 17  2  0
 15 18  1  0
 15 44  1  0
 16 20  2  0
 16 21  1  0
 17 19  1  0
 17 45  1  0
 18 19  2  0
 18 46  1  0
 19 47  1  0
 20 22  1  0
 20 48  1  0
 21 23  2  0
 21 49  1  0
 22 24  2  0
 22 50  1  0
 23 24  1  0
 23 51  1  0
 24 52  1  0
M  STY  8   1 DAT   2 DAT   3 DAT   4 DAT   5 DAT   6 DAT   7 DAT   8 DAT
M  STY  8   9 DAT  10 DAT  11 DAT  12 DAT  13 DAT  14 DAT  15 DAT  16 DAT
M  STY  8  17 DAT  18 DAT  19 DAT  20 DAT  21 DAT  22 DAT  23 DAT  24 DAT
M  STY  8  25 DAT  26 DAT  27 DAT  28 DAT  29 DAT  30 DAT  31 DAT  32 DAT
M  STY  8  33 DAT  34 DAT  35 DAT  36 DAT  37 DAT  38 DAT  39 DAT  40 DAT
M  STY  8  41 DAT  42 DAT  43 DAT  44 DAT  45 DAT  46 DAT  47 DAT  48 DAT
M  STY  4  49 DAT  50 DAT  51 DAT  52 DAT
M  SAL   1  1   1
M  SED   1 [#8&h0]
M  SAL   2  1   2
M  SED   2 [#7&h0]
M  SAL   3  1   3
M  SED   3 [#7&h0]
M  SAL   4  1   4
M  SED   4 [#6&h0]
M  SAL   5  1   5
M  SED   5 [#6&h0]
M  SAL   6  1   6
M  SED   6 [#6&h0]
M  SAL   7  1   7
M  SED   7 [#6&h0]
M  SAL   8  1   8
M  SED   8 [#6&h0]
M  SAL   9  1   9
M  SED   9 [#6&h0]
M  SAL  10  1  10
M  SED  10 [#6&h0]
M  SAL  11  1  11
M  SED  11 [#6&h0]
M  SAL  12  1  12
M  SED  12 [#6&h0]
M  SAL  13  1  13
M  SED  13 [#6&h0]
M  SAL  14  1  14
M  SED  14 [#6&h0]
M  SAL  15  1  15
M  SED  15 [#6&h0]
M  SAL  16  1  16
M  SED  16 [#6&h0]
M  SAL  17  1  17
M  SED  17 [#6&h0]
M  SAL  18  1  18
M  SED  18 [#6&h0]
M  SAL  19  1  19
M  SED  19 [#6&h0]
M  SAL  20  1  20
M  SED  20 [#6&h0]
M  SAL  21  1  21
M  SED  21 [#6&h0]
M  SAL  22  1  22
M  SED  22 [#6&h0]
M  SAL  23  1  23
M  SED  23 [#6&h0]
M  SAL  24  1  24
M  SED  24 [#6&h0]
M  SAL  25  1  25
M  SED  25 [#1&h0]
M  SAL  26  1  26
M  SED  26 [#1&h0]
M  SAL  27  1  27
M  SED  27 [#1&h0]
M  SAL  28  1  28
M  SED  28 [#1&h0]
M  SAL  29  1  29
M  SED  29 [#1&h0]
M  SAL  30  1  30
M  SED  30 [#1&h0]
M  SAL  31  1  31
M  SED  31 [#1&h0]
M  SAL  32  1  32
M  SED  32 [#1&h0]
M  SAL  33  1  33
M  SED  33 [#1&h0]
M  SAL  34  1  34
M  SED  34 [#1&h0]
M  SAL  35  1  35
M  SED  35 [#1&h0]
M  SAL  36  1  36
M  SED  36 [#1&h0]
M  SAL  37  1  37
M  SED  37 [#1&h0]
M  SAL  38  1  38
M  SED  38 [#1&h0]
M  SAL  39  1  39
M  SED  39 [#1&h0]
M  SAL  40  1  40
M  SED  40 [#1&h0]
M  SAL  41  1  41
M  SED  41 [#1&h0]
M  SAL  42  1  42
M  SED  42 [#1&h0]
M  SAL  43  1  43
M  SED  43 [#1&h0]
M  SAL  44  1  44
M  SED  44 [#1&h0]
M  SAL  45  1  45
M  SED  45 [#1&h0]
M  SAL  46  1  46
M  SED  46 [#1&h0]
M  SAL  47  1  47
M  SED  47 [#1&h0]
M  SAL  48  1  48
M  SED  48 [#1&h0]
M  SAL  49  1  49
M  SED  49 [#1&h0]
M  SAL  50  1  50
M  SED  50 [#1&h0]
M  SAL  51  1  51
M  SED  51 [#1&h0]
M  SAL  52  1  52
M  SED  52 [#1&h0]
M  END
>  <Activity>  (41) 
0.01

>  <Mapped(file=2032.csv.activities,property=Cached(PUBCHEM_COMPOUND_CID))>  (41) 
100

>  <MatchIndices>  (41) 
129 

>  <PUBCHEM_ATOM_DEF_STEREO_COUNT>  (41) 
0

>  <PUBCHEM_ATOM_UDEF_STEREO_COUNT>  (41) 
0

>  <PUBCHEM_BONDANNOTATIONS>  (41) 
17  18  8
17  19  8
18  21  8
19  22  8
20  24  8
20  25  8
21  23  8
22  23  8
24  26  8
25  27  8
26  28  8
27  28  8

>  <PUBCHEM_BOND_DEF_STEREO_COUNT>  (41) 
0

>  <PUBCHEM_BOND_UDEF_STEREO_COUNT>  (41) 
0

>  <PUBCHEM_CACTVS_COMPLEXITY>  (41) 
406

>  <PUBCHEM_CACTVS_HBOND_ACCEPTOR>  (41) 
7

>  <PUBCHEM_CACTVS_HBOND_DONOR>  (41) 
2

>  <PUBCHEM_CACTVS_ROTATABLE_BOND>  (41) 
8

>  <PUBCHEM_CACTVS_SUBSKEYS>  (41) 
AAADceB7OAAAAAAAAAAAAAAAAAAAAAAAAAA8YIAAAAAAAAABQAAAHgAACAAADAThmAYyDoMABgCIAiDSCAICCAAgIAAIiABOCIgNZiKEsRqWOCCkwBGJqAegwOAOgAAAAAAIAAAAAAAAABAAAAAAAAAAAA==

>  <PUBCHEM_CACTVS_TAUTO_COUNT>  (41) 
1

>  <PUBCHEM_CACTVS_TPSA>  (41) 
90.3

>  <PUBCHEM_COMPONENT_COUNT>  (41) 
2

>  <PUBCHEM_COMPOUND_CANONICALIZED>  (41) 
1

>  <PUBCHEM_COMPOUND_CID>  (41) 
2924017

>  <PUBCHEM_COORDINATE_TYPE>  (41) 
1
5
255

>  <PUBCHEM_EXACT_MASS>  (41) 
414.215472

>  <PUBCHEM_HEAVY_ATOM_COUNT>  (41) 
30

>  <PUBCHEM_ISOTOPIC_ATOM_COUNT>  (41) 
0

>  <PUBCHEM_IUPAC_CAS_NAME>  (41) 
1-methyl-4-[4-(2-phenylphenoxy)butyl]piperazine; oxalic acid

>  <PUBCHEM_IUPAC_INCHI>  (41) 
InChI=1S/C21H28N2O.C2H2O4/c1-22-14-16-23(17-15-22)13-7-8-18-24-21-12-6-5-11-20(21)19-9-3-2-4-10-19;3-1(4)2(5)6/h2-6,9-12H,7-8,13-18H2,1H3;(H,3,4)(H,5,6)

>  <PUBCHEM_IUPAC_INCHIKEY>  (41) 
YFHFDSAGVAEAJF-UHFFFAOYSA-N

>  <PUBCHEM_IUPAC_NAME>  (41) 
1-methyl-4-[4-(2-phenylphenoxy)butyl]piperazine; oxalic acid

>  <PUBCHEM_IUPAC_OPENEYE_NAME>  (41) 
1-methyl-4-[4-(2-phenylphenoxy)butyl]piperazine; oxalic acid

>  <PUBCHEM_IUPAC_SYSTEMATIC_NAME>  (41) 
ethanedioic acid; 1-methyl-4-[4-(2-phenylphenoxy)butyl]piperazine

>  <PUBCHEM_IUPAC_TRADITIONAL_NAME>  (41) 
1-methyl-4-[4-(2-phenylphenoxy)butyl]piperazine; oxalic acid

>  <PUBCHEM_MOLECULAR_FORMULA>  (41) 
C23H30N2O5

>  <PUBCHEM_MOLECULAR_WEIGHT>  (41) 
414.4947

>  <PUBCHEM_MONOISOTOPIC_WEIGHT>  (41) 
414.215472

>  <PUBCHEM_OPENEYE_CAN_SMILES>  (41) 
CN1CCN(CC1)CCCCOC2=CC=CC=C2C3=CC=CC=C3.C(=O)(C(=O)O)O

>  <PUBCHEM_OPENEYE_ISO_SMILES>  (41) 
CN1CCN(CC1)CCCCOC2=CC=CC=C2C3=CC=CC=C3.C(=O)(C(=O)O)O

>  <PUBCHEM_TOTAL_CHARGE>  (41) 
0

$$$$
Largest isolated from Written by BCL::WriteToMDL,667701
     RDKit          2D

 39 41  0 39  0  0  0  0  0  0999 V2000
   -0.5363   -0.0489    0.0000 S   0  0  0  0  0  0  0  0  0  0  0  0
   -1.0652    1.3548    0.0000 O   0  0  0  0  0  0  0  0  0  0  0  0
   -0.0075   -1.4526    0.0000 O   0  0  0  0  0  0  0  0  0  0  0  0
    4.5907   -0.8935    0.0000 O   0  0  0  0  0  0  0  0  0  0  0  0
    5.0784    2.0666    0.0000 O   0  0  0  0  0  0  0  0  0  0  0  0
   -1.9400   -0.5778    0.0000 N   0  0  0  0  0  0  0  0  0  0  0  0
   -2.3372   -2.0242    0.0000 C   0  0  0  0  0  0  0  0  0  0  0  0
   -3.8356   -2.0934    0.0000 C   0  0  0  0  0  0  0  0  0  0  0  0
   -3.1929    0.2470    0.0000 C   0  0  0  0  0  0  0  0  0  0  0  0
   -4.3645   -0.6898    0.0000 C   0  0  0  0  0  0  0  0  0  0  0  0
    0.8674    0.4800    0.0000 C   0  0  0  0  0  0  0  0  0  0  0  0
   -3.4184    1.7299    0.0000 C   0  0  0  0  0  0  0  0  0  0  0  0
   -5.7615   -0.1436    0.0000 C   0  0  0  0  0  0  0  0  0  0  0  0
   -4.8154    2.2761    0.0000 C   0  0  0  0  0  0  0  0  0  0  0  0
   -5.9869    1.3394    0.0000 C   0  0  0  0  0  0  0  0  0  0  0  0
    2.0272   -0.4712    0.0000 C   0  0  0  0  0  0  0  0  0  0  0  0
    1.1112    1.9600    0.0000 C   0  0  0  0  0  0  0  0  0  0  0  0
    3.4309    0.0576    0.0000 C   0  0  0  0  0  0  0  0  0  0  0  0
    2.5149    2.4889    0.0000 C   0  0  0  0  0  0  0  0  0  0  0  0
    3.6747    1.5377    0.0000 C   0  0  0  0  0  0  0  0  0  0  0  0
    4.3469   -2.3736    0.0000 C   0  0  0  0  0  0  0  0  0  0  0  0
    6.2382    1.1154    0.0000 C   0  0  0  0  0  0  0  0  0  0  0  0
   -0.8571   -2.2681    0.0000 H   0  0  0  0  0  0  0  0  0  0  0  0
   -2.4250   -3.5217    0.0000 H   0  0  0  0  0  0  0  0  0  0  0  0
   -3.6101   -3.5764    0.0000 H   0  0  0  0  0  0  0  0  0  0  0  0
   -5.2869   -2.4727    0.0000 H   0  0  0  0  0  0  0  0  0  0  0  0
   -2.2468    2.6667    0.0000 H   0  0  0  0  0  0  0  0  0  0  0  0
   -6.9330   -1.0803    0.0000 H   0  0  0  0  0  0  0  0  0  0  0  0
   -5.0409    3.7591    0.0000 H   0  0  0  0  0  0  0  0  0  0  0  0
   -7.3840    1.8856    0.0000 H   0  0  0  0  0  0  0  0  0  0  0  0
    1.7834   -1.9513    0.0000 H   0  0  0  0  0  0  0  0  0  0  0  0
   -0.0487    2.9112    0.0000 H   0  0  0  0  0  0  0  0  0  0  0  0
    2.7587    3.9689    0.0000 H   0  0  0  0  0  0  0  0  0  0  0  0
    5.8269   -2.6174    0.0000 H   0  0  0  0  0  0  0  0  0  0  0  0
    2.8668   -2.1298    0.0000 H   0  0  0  0  0  0  0  0  0  0  0  0
    4.1031   -3.8536    0.0000 H   0  0  0  0  0  0  0  0  0  0  0  0
    7.1894    2.2752    0.0000 H   0  0  0  0  0  0  0  0  0  0  0  0
    5.2870   -0.0445    0.0000 H   0  0  0  0  0  0  0  0  0  0  0  0
    7.3981    0.1642    0.0000 H   0  0  0  0  0  0  0  0  0  0  0  0
  1  2  2  0
  1  3  2  0
  1  6  1  0
  1 11  1  0
  4 18  1  0
  4 21  1  0
  5 20  1  0
  5 22  1  0
  6  7  1  0
  6  9  1  0
  7  8  1  0
  7 23  1  0
  7 24  1  0
  8 10  1  0
  8 25  1  0
  8 26  1  0
  9 10  2  0
  9 12  1  0
 10 13  1  0
 11 16  2  0
 11 17  1  0
 12 14  2  0
 12 27  1  0
 13 15  2  0
 13 28  1  0
 14 15  1  0
 14 29  1  0
 15 30  1  0
 16 18  1  0
 16 31  1  0
 17 19  2  0
 17 32  1  0
 18 20  2  0
 19 20  1  0
 19 33  1  0
 21 34  1  0
 21 35  1  0
 21 36  1  0
 22 37  1  0
 22 38  1  0
 22 39  1  0
M  STY  8   1 DAT   2 DAT   3 DAT   4 DAT   5 DAT   6 DAT   7 DAT   8 DAT
M  STY  8   9 DAT  10 DAT  11 DAT  12 DAT  13 DAT  14 DAT  15 DAT  16 DAT
M  STY  8  17 DAT  18 DAT  19 DAT  20 DAT  21 DAT  22 DAT  23 DAT  24 DAT
M  STY  8  25 DAT  26 DAT  27 DAT  28 DAT  29 DAT  30 DAT  31 DAT  32 DAT
M  STY  7  33 DAT  34 DAT  35 DAT  36 DAT  37 DAT  38 DAT  39 DAT
M  SAL   1  1   1
M  SED   1 [#16&h0]
M  SAL   2  1   2
M  SED   2 [#8&h0]
M  SAL   3  1   3
M  SED   3 [#8&h0]
M  SAL   4  1   4
M  SED   4 [#8&h0]
M  SAL   5  1   5
M  SED   5 [#8&h0]
M  SAL   6  1   6
M  SED   6 [#7&h0]
M  SAL   7  1   7
M  SED   7 [#6&h0]
M  SAL   8  1   8
M  SED   8 [#6&h0]
M  SAL   9  1   9
M  SED   9 [#6&h0]
M  SAL  10  1  10
M  SED  10 [#6&h0]
M  SAL  11  1  11
M  SED  11 [#6&h0]
M  SAL  12  1  12
M  SED  12 [#6&h0]
M  SAL  13  1  13
M  SED  13 [#6&h0]
M  SAL  14  1  14
M  SED  14 [#6&h0]
M  SAL  15  1  15
M  SED  15 [#6&h0]
M  SAL  16  1  16
M  SED  16 [#6&h0]
M  SAL  17  1  17
M  SED  17 [#6&h0]
M  SAL  18  1  18
M  SED  18 [#6&h0]
M  SAL  19  1  19
M  SED  19 [#6&h0]
M  SAL  20  1  20
M  SED  20 [#6&h0]
M  SAL  21  1  21
M  SED  21 [#6&h0]
M  SAL  22  1  22
M  SED  22 [#6&h0]
M  SAL  23  1  23
M  SED  23 [#1&h0]
M  SAL  24  1  24
M  SED  24 [#1&h0]
M  SAL  25  1  25
M  SED  25 [#1&h0]
M  SAL  26  1  26
M  SED  26 [#1&h0]
M  SAL  27  1  27
M  SED  27 [#1&h0]
M  SAL  28  1  28
M  SED  28 [#1&h0]
M  SAL  29  1  29
M  SED  29 [#1&h0]
M  SAL  30  1  30
M  SED  30 [#1&h0]
M  SAL  31  1  31
M  SED  31 [#1&h0]
M  SAL  32  1  32
M  SED  32 [#1&h0]
M  SAL  33  1  33
M  SED  33 [#1&h0]
M  SAL  34  1  34
M  SED  34 [#1&h0]
M  SAL  35  1  35
M  SED  35 [#1&h0]
M  SAL  36  1  36
M  SED  36 [#1&h0]
M  SAL  37  1  37
M  SED  37 [#1&h0]
M  SAL  38  1  38
M  SED  38 [#1&h0]
M  SAL  39  1  39
M  SED  39 [#1&h0]
M  END
>  <Activity>  (42) 
0.01

>  <Mapped(file=2032.csv.activities,property=Cached(PUBCHEM_COMPOUND_CID))>  (42) 
100

>  <MatchIndices>  (42) 
139 

>  <PUBCHEM_ATOM_DEF_STEREO_COUNT>  (42) 
0

>  <PUBCHEM_ATOM_UDEF_STEREO_COUNT>  (42) 
0

>  <PUBCHEM_BONDANNOTATIONS>  (42) 
10  13  8
11  16  8
11  17  8
12  14  8
13  15  8
14  15  8
16  18  8
17  19  8
18  20  8
19  20  8
9  10  8
9  12  8

>  <PUBCHEM_BOND_DEF_STEREO_COUNT>  (42) 
0

>  <PUBCHEM_BOND_UDEF_STEREO_COUNT>  (42) 
0

>  <PUBCHEM_CACTVS_COMPLEXITY>  (42) 
475

>  <PUBCHEM_CACTVS_HBOND_ACCEPTOR>  (42) 
5

>  <PUBCHEM_CACTVS_HBOND_DONOR>  (42) 
0

>  <PUBCHEM_CACTVS_ROTATABLE_BOND>  (42) 
4

>  <PUBCHEM_CACTVS_SUBSKEYS>  (42) 
AAADceB6OABAAAAAAAAAAAAAAAAAAWAAAAAwYAAAAAAAAFgBQAAAHgQAQAAADAzB2AYyx4IABAKAAiRCQHDCCBAhIgAIiBgO7IgNJiLEsZuEMCpkwBHK6AeQwIAOAIAABAACQAABAAAIAASAAAAAAAAAAA==

>  <PUBCHEM_CACTVS_TAUTO_COUNT>  (42) 
1

>  <PUBCHEM_CACTVS_TPSA>  (42) 
64.2

>  <PUBCHEM_COMPONENT_COUNT>  (42) 
1

>  <PUBCHEM_COMPOUND_CANONICALIZED>  (42) 
1

>  <PUBCHEM_COMPOUND_CID>  (42) 
667701

>  <PUBCHEM_COORDINATE_TYPE>  (42) 
1
5
255

>  <PUBCHEM_EXACT_MASS>  (42) 
319.087829

>  <PUBCHEM_HEAVY_ATOM_COUNT>  (42) 
22

>  <PUBCHEM_ISOTOPIC_ATOM_COUNT>  (42) 
0

>  <PUBCHEM_IUPAC_CAS_NAME>  (42) 
1-(3,4-dimethoxyphenyl)sulfonyl-2,3-dihydroindole

>  <PUBCHEM_IUPAC_INCHI>  (42) 
InChI=1S/C16H17NO4S/c1-20-15-8-7-13(11-16(15)21-2)22(18,19)17-10-9-12-5-3-4-6-14(12)17/h3-8,11H,9-10H2,1-2H3

>  <PUBCHEM_IUPAC_INCHIKEY>  (42) 
OZLLCTRRCDHJDG-UHFFFAOYSA-N

>  <PUBCHEM_IUPAC_NAME>  (42) 
1-(3,4-dimethoxyphenyl)sulfonyl-2,3-dihydroindole

>  <PUBCHEM_IUPAC_OPENEYE_NAME>  (42) 
1-(3,4-dimethoxyphenyl)sulfonylindoline

>  <PUBCHEM_IUPAC_SYSTEMATIC_NAME>  (42) 
1-(3,4-dimethoxyphenyl)sulfonyl-2,3-dihydroindole

>  <PUBCHEM_IUPAC_TRADITIONAL_NAME>  (42) 
1-(3,4-dimethoxyphenyl)sulfonylindoline

>  <PUBCHEM_MOLECULAR_FORMULA>  (42) 
C16H17NO4S

>  <PUBCHEM_MOLECULAR_WEIGHT>  (42) 
319.37548

>  <PUBCHEM_MONOISOTOPIC_WEIGHT>  (42) 
319.087829

>  <PUBCHEM_OPENEYE_CAN_SMILES>  (42) 
COC1=C(C=C(C=C1)S(=O)(=O)N2CCC3=CC=CC=C32)OC

>  <PUBCHEM_OPENEYE_ISO_SMILES>  (42) 
COC1=C(C=C(C=C1)S(=O)(=O)N2CCC3=CC=CC=C32)OC

>  <PUBCHEM_TOTAL_CHARGE>  (42) 
0

>  <PUBCHEM_XLOGP3_AA>  (42) 
2.6

$$$$
Largest isolated from Written by BCL::WriteToMDL,2935998
     RDKit          2D

 50 51  0 50  0  0  0  0  0  0999 V2000
    1.3254   -3.5512    0.0000 O   0  0  0  0  0  0  0  0  0  0  0  0
   -2.4643   -1.1247    0.0000 O   0  0  0  0  0  0  0  0  0  0  0  0
    5.3217   -1.4824    0.0000 N   0  0  0  0  0  0  0  0  0  0  0  0
    5.3906    0.0160    0.0000 C   0  0  0  0  0  0  0  0  0  0  0  0
    5.4594    1.5144    0.0000 C   0  0  0  0  0  0  0  0  0  0  0  0
    3.9896   -2.1720    0.0000 C   0  0  0  0  0  0  0  0  0  0  0  0
    3.8921    0.0848    0.0000 C   0  0  0  0  0  0  0  0  0  0  0  0
    2.6575   -2.8616    0.0000 C   0  0  0  0  0  0  0  0  0  0  0  0
    5.5283    3.0128    0.0000 C   0  0  0  0  0  0  0  0  0  0  0  0
    0.0622   -2.7424    0.0000 C   0  0  0  0  0  0  0  0  0  0  0  0
   -1.2011   -1.9335    0.0000 C   0  0  0  0  0  0  0  0  0  0  0  0
   -3.6587    1.1826    0.0000 C   0  0  0  0  0  0  0  0  0  0  0  0
   -2.3955    0.3737    0.0000 C   0  0  0  0  0  0  0  0  0  0  0  0
   -4.9908    0.4930    0.0000 C   0  0  0  0  0  0  0  0  0  0  0  0
   -3.5899    2.6810    0.0000 C   0  0  0  0  0  0  0  0  0  0  0  0
   -1.0634    1.0633    0.0000 C   0  0  0  0  0  0  0  0  0  0  0  0
   -2.2578    3.3706    0.0000 C   0  0  0  0  0  0  0  0  0  0  0  0
   -6.2540    1.3018    0.0000 C   0  0  0  0  0  0  0  0  0  0  0  0
   -5.0596   -1.0054    0.0000 C   0  0  0  0  0  0  0  0  0  0  0  0
   -0.9945    2.5617    0.0000 C   0  0  0  0  0  0  0  0  0  0  0  0
   -7.5861    0.6122    0.0000 C   0  0  0  0  0  0  0  0  0  0  0  0
   -6.3917   -1.6950    0.0000 C   0  0  0  0  0  0  0  0  0  0  0  0
   -7.6550   -0.8862    0.0000 C   0  0  0  0  0  0  0  0  0  0  0  0
    6.8890   -0.0529    0.0000 H   0  0  0  0  0  0  0  0  0  0  0  0
    4.5862    1.6626    0.0000 H   0  0  0  0  0  0  0  0  0  0  0  0
    6.9578    1.4456    0.0000 H   0  0  0  0  0  0  0  0  0  0  0  0
    6.5850   -2.2913    0.0000 H   0  0  0  0  0  0  0  0  0  0  0  0
    4.6792   -3.5041    0.0000 H   0  0  0  0  0  0  0  0  0  0  0  0
    3.5396   -1.5140    0.0000 H   0  0  0  0  0  0  0  0  0  0  0  0
    3.8246    0.9680    0.0000 H   0  0  0  0  0  0  0  0  0  0  0  0
    3.5725   -0.6455    0.0000 H   0  0  0  0  0  0  0  0  0  0  0  0
    2.3937    0.1537    0.0000 H   0  0  0  0  0  0  0  0  0  0  0  0
    3.3471   -4.1937    0.0000 H   0  0  0  0  0  0  0  0  0  0  0  0
    1.9679   -1.5295    0.0000 H   0  0  0  0  0  0  0  0  0  0  0  0
    7.0267    2.9440    0.0000 H   0  0  0  0  0  0  0  0  0  0  0  0
    4.0298    3.0817    0.0000 H   0  0  0  0  0  0  0  0  0  0  0  0
    5.5971    4.5113    0.0000 H   0  0  0  0  0  0  0  0  0  0  0  0
    0.8710   -1.4791    0.0000 H   0  0  0  0  0  0  0  0  0  0  0  0
   -0.7466   -4.0056    0.0000 H   0  0  0  0  0  0  0  0  0  0  0  0
   -2.0099   -3.1968    0.0000 H   0  0  0  0  0  0  0  0  0  0  0  0
   -0.3922   -0.6703    0.0000 H   0  0  0  0  0  0  0  0  0  0  0  0
   -4.8531    3.4898    0.0000 H   0  0  0  0  0  0  0  0  0  0  0  0
    0.1999    0.2545    0.0000 H   0  0  0  0  0  0  0  0  0  0  0  0
   -6.1852    2.8002    0.0000 H   0  0  0  0  0  0  0  0  0  0  0  0
   -3.7964   -1.8143    0.0000 H   0  0  0  0  0  0  0  0  0  0  0  0
   -2.1889    4.8690    0.0000 H   0  0  0  0  0  0  0  0  0  0  0  0
    0.3376    3.2513    0.0000 H   0  0  0  0  0  0  0  0  0  0  0  0
   -8.8494    1.4210    0.0000 H   0  0  0  0  0  0  0  0  0  0  0  0
   -6.4606   -3.1935    0.0000 H   0  0  0  0  0  0  0  0  0  0  0  0
   -8.9871   -1.5758    0.0000 H   0  0  0  0  0  0  0  0  0  0  0  0
  1  8  1  0
  1 10  1  0
  2 11  1  0
  2 13  1  0
  3  4  1  0
  3  6  1  0
  3 27  1  0
  4  5  1  0
  4  7  1  0
  4 24  1  1
  5  9  1  0
  5 25  1  0
  5 26  1  0
  6  8  1  0
  6 28  1  0
  6 29  1  0
  7 30  1  0
  7 31  1  0
  7 32  1  0
  8 33  1  0
  8 34  1  0
  9 35  1  0
  9 36  1  0
  9 37  1  0
 10 11  1  0
 10 38  1  0
 10 39  1  0
 11 40  1  0
 11 41  1  0
 12 13  2  0
 12 14  1  0
 12 15  1  0
 13 16  1  0
 14 18  2  0
 14 19  1  0
 15 17  2  0
 15 42  1  0
 16 20  2  0
 16 43  1  0
 17 20  1  0
 17 46  1  0
 18 21  1  0
 18 44  1  0
 19 22  2  0
 19 45  1  0
 20 47  1  0
 21 23  2  0
 21 48  1  0
 22 23  1  0
 22 49  1  0
 23 50  1  0
M  STY  8   1 DAT   2 DAT   3 DAT   4 DAT   5 DAT   6 DAT   7 DAT   8 DAT
M  STY  8   9 DAT  10 DAT  11 DAT  12 DAT  13 DAT  14 DAT  15 DAT  16 DAT
M  STY  8  17 DAT  18 DAT  19 DAT  20 DAT  21 DAT  22 DAT  23 DAT  24 DAT
M  STY  8  25 DAT  26 DAT  27 DAT  28 DAT  29 DAT  30 DAT  31 DAT  32 DAT
M  STY  8  33 DAT  34 DAT  35 DAT  36 DAT  37 DAT  38 DAT  39 DAT  40 DAT
M  STY  8  41 DAT  42 DAT  43 DAT  44 DAT  45 DAT  46 DAT  47 DAT  48 DAT
M  STY  2  49 DAT  50 DAT
M  SAL   1  1   1
M  SED   1 [#8&h0]
M  SAL   2  1   2
M  SED   2 [#8&h0]
M  SAL   3  1   3
M  SED   3 [#7&h0]
M  SAL   4  1   4
M  SED   4 [#6&h0]
M  SAL   5  1   5
M  SED   5 [#6&h0]
M  SAL   6  1   6
M  SED   6 [#6&h0]
M  SAL   7  1   7
M  SED   7 [#6&h0]
M  SAL   8  1   8
M  SED   8 [#6&h0]
M  SAL   9  1   9
M  SED   9 [#6&h0]
M  SAL  10  1  10
M  SED  10 [#6&h0]
M  SAL  11  1  11
M  SED  11 [#6&h0]
M  SAL  12  1  12
M  SED  12 [#6&h0]
M  SAL  13  1  13
M  SED  13 [#6&h0]
M  SAL  14  1  14
M  SED  14 [#6&h0]
M  SAL  15  1  15
M  SED  15 [#6&h0]
M  SAL  16  1  16
M  SED  16 [#6&h0]
M  SAL  17  1  17
M  SED  17 [#6&h0]
M  SAL  18  1  18
M  SED  18 [#6&h0]
M  SAL  19  1  19
M  SED  19 [#6&h0]
M  SAL  20  1  20
M  SED  20 [#6&h0]
M  SAL  21  1  21
M  SED  21 [#6&h0]
M  SAL  22  1  22
M  SED  22 [#6&h0]
M  SAL  23  1  23
M  SED  23 [#6&h0]
M  SAL  24  1  24
M  SED  24 [#1&h0]
M  SAL  25  1  25
M  SED  25 [#1&h0]
M  SAL  26  1  26
M  SED  26 [#1&h0]
M  SAL  27  1  27
M  SED  27 [#1&h0]
M  SAL  28  1  28
M  SED  28 [#1&h0]
M  SAL  29  1  29
M  SED  29 [#1&h0]
M  SAL  30  1  30
M  SED  30 [#1&h0]
M  SAL  31  1  31
M  SED  31 [#1&h0]
M  SAL  32  1  32
M  SED  32 [#1&h0]
M  SAL  33  1  33
M  SED  33 [#1&h0]
M  SAL  34  1  34
M  SED  34 [#1&h0]
M  SAL  35  1  35
M  SED  35 [#1&h0]
M  SAL  36  1  36
M  SED  36 [#1&h0]
M  SAL  37  1  37
M  SED  37 [#1&h0]
M  SAL  38  1  38
M  SED  38 [#1&h0]
M  SAL  39  1  39
M  SED  39 [#1&h0]
M  SAL  40  1  40
M  SED  40 [#1&h0]
M  SAL  41  1  41
M  SED  41 [#1&h0]
M  SAL  42  1  42
M  SED  42 [#1&h0]
M  SAL  43  1  43
M  SED  43 [#1&h0]
M  SAL  44  1  44
M  SED  44 [#1&h0]
M  SAL  45  1  45
M  SED  45 [#1&h0]
M  SAL  46  1  46
M  SED  46 [#1&h0]
M  SAL  47  1  47
M  SED  47 [#1&h0]
M  SAL  48  1  48
M  SED  48 [#1&h0]
M  SAL  49  1  49
M  SED  49 [#1&h0]
M  SAL  50  1  50
M  SED  50 [#1&h0]
M  END
>  <Activity>  (43) 
0.01

>  <Mapped(file=2032.csv.activities,property=Cached(PUBCHEM_COMPOUND_CID))>  (43) 
100

>  <MatchIndices>  (43) 
103 

>  <PUBCHEM_ATOM_DEF_STEREO_COUNT>  (43) 
0

>  <PUBCHEM_ATOM_UDEF_STEREO_COUNT>  (43) 
1

>  <PUBCHEM_BONDANNOTATIONS>  (43) 
16  17  8
16  19  8
17  20  8
18  22  8
18  23  8
19  21  8
20  24  8
21  24  8
22  25  8
23  26  8
25  27  8
26  27  8
8  11  3

>  <PUBCHEM_BOND_DEF_STEREO_COUNT>  (43) 
0

>  <PUBCHEM_BOND_UDEF_STEREO_COUNT>  (43) 
0

>  <PUBCHEM_CACTVS_COMPLEXITY>  (43) 
363

>  <PUBCHEM_CACTVS_HBOND_ACCEPTOR>  (43) 
7

>  <PUBCHEM_CACTVS_HBOND_DONOR>  (43) 
3

>  <PUBCHEM_CACTVS_ROTATABLE_BOND>  (43) 
11

>  <PUBCHEM_CACTVS_SUBSKEYS>  (43) 
AAADceB6OAAAAAAAAAAAAAAAAAAAAAAAAAAwYAAAAAAAAAABQAAAHgAQCAAADCzhmAYyDoLABgCIAiDSCAICCAAgIAAIiIBOCIgPJiKEMRqHOCCk0BGbqAeAwOAOgAAAAAAIAAAAAAAAABAAAAAAAAAAAA==

>  <PUBCHEM_CACTVS_TAUTO_COUNT>  (43) 
1

>  <PUBCHEM_CACTVS_TPSA>  (43) 
105

>  <PUBCHEM_COMPONENT_COUNT>  (43) 
2

>  <PUBCHEM_COMPOUND_CANONICALIZED>  (43) 
1

>  <PUBCHEM_COMPOUND_CID>  (43) 
2935998

>  <PUBCHEM_COORDINATE_TYPE>  (43) 
1
5
255

>  <PUBCHEM_EXACT_MASS>  (43) 
403.199488

>  <PUBCHEM_HEAVY_ATOM_COUNT>  (43) 
29

>  <PUBCHEM_ISOTOPIC_ATOM_COUNT>  (43) 
0

>  <PUBCHEM_IUPAC_CAS_NAME>  (43) 
oxalic acid; N-[2-[2-(2-phenylphenoxy)ethoxy]ethyl]-2-butanamine

>  <PUBCHEM_IUPAC_INCHI>  (43) 
InChI=1S/C20H27NO2.C2H2O4/c1-3-17(2)21-13-14-22-15-16-23-20-12-8-7-11-19(20)18-9-5-4-6-10-18;3-1(4)2(5)6/h4-12,17,21H,3,13-16H2,1-2H3;(H,3,4)(H,5,6)

>  <PUBCHEM_IUPAC_INCHIKEY>  (43) 
GXABYAWOXQTSQF-UHFFFAOYSA-N

>  <PUBCHEM_IUPAC_NAME>  (43) 
oxalic acid; N-[2-[2-(2-phenylphenoxy)ethoxy]ethyl]butan-2-amine

>  <PUBCHEM_IUPAC_OPENEYE_NAME>  (43) 
oxalic acid; N-[2-[2-(2-phenylphenoxy)ethoxy]ethyl]butan-2-amine

>  <PUBCHEM_IUPAC_SYSTEMATIC_NAME>  (43) 
ethanedioic acid; N-[2-[2-(2-phenylphenoxy)ethoxy]ethyl]butan-2-amine

>  <PUBCHEM_IUPAC_TRADITIONAL_NAME>  (43) 
oxalic acid; 2-[2-(2-phenylphenoxy)ethoxy]ethyl-sec-butyl-amine

>  <PUBCHEM_MOLECULAR_FORMULA>  (43) 
C22H29NO6

>  <PUBCHEM_MOLECULAR_WEIGHT>  (43) 
403.46876

>  <PUBCHEM_MONOISOTOPIC_WEIGHT>  (43) 
403.199488

>  <PUBCHEM_OPENEYE_CAN_SMILES>  (43) 
CCC(C)NCCOCCOC1=CC=CC=C1C2=CC=CC=C2.C(=O)(C(=O)O)O

>  <PUBCHEM_OPENEYE_ISO_SMILES>  (43) 
CCC(C)NCCOCCOC1=CC=CC=C1C2=CC=CC=C2.C(=O)(C(=O)O)O

>  <PUBCHEM_TOTAL_CHARGE>  (43) 
0

$$$$
Largest isolated from Written by BCL::WriteToMDL,24746733
     RDKit          2D

 53 55  0 53  0  0  0  0  0  0999 V2000
    0.5096   -1.3074    0.0000 O   0  0  0  0  0  0  0  0  0  0  0  0
   -0.6752    1.3991    0.0000 O   0  0  0  0  0  0  0  0  0  0  0  0
    3.7419   -3.6100    0.0000 O   0  0  0  0  0  0  0  0  0  0  0  0
   -9.6570    0.8274    0.0000 O   0  0  0  0  0  0  0  0  0  0  0  0
    1.2171   -4.2228    0.0000 N   0  0  0  0  0  0  0  0  0  0  0  0
    2.6806    0.7630    0.0000 C   0  0  0  0  0  0  0  0  0  0  0  0
    1.2413    1.1855    0.0000 C   0  0  0  0  0  0  0  0  0  0  0  0
    0.1558    0.1503    0.0000 C   0  0  0  0  0  0  0  0  0  0  0  0
    4.1775    0.8583    0.0000 C   0  0  0  0  0  0  0  0  0  0  0  0
    3.0344   -0.6946    0.0000 C   0  0  0  0  0  0  0  0  0  0  0  0
    1.9488   -1.7299    0.0000 C   0  0  0  0  0  0  0  0  0  0  0  0
    4.8435    2.2024    0.0000 C   0  0  0  0  0  0  0  0  0  0  0  0
    5.0085   -0.3905    0.0000 C   0  0  0  0  0  0  0  0  0  0  0  0
   -2.1722    1.3038    0.0000 C   0  0  0  0  0  0  0  0  0  0  0  0
    2.3026   -3.1875    0.0000 C   0  0  0  0  0  0  0  0  0  0  0  0
   -3.6691    1.2085    0.0000 C   0  0  0  0  0  0  0  0  0  0  0  0
    6.3405    2.2976    0.0000 C   0  0  0  0  0  0  0  0  0  0  0  0
    6.5055   -0.2952    0.0000 C   0  0  0  0  0  0  0  0  0  0  0  0
    7.1715    1.0489    0.0000 C   0  0  0  0  0  0  0  0  0  0  0  0
   -4.5001    2.4573    0.0000 C   0  0  0  0  0  0  0  0  0  0  0  0
   -4.3351   -0.1355    0.0000 C   0  0  0  0  0  0  0  0  0  0  0  0
   -6.6631    1.0180    0.0000 C   0  0  0  0  0  0  0  0  0  0  0  0
   -5.9971    2.3620    0.0000 C   0  0  0  0  0  0  0  0  0  0  0  0
   -5.8321   -0.2308    0.0000 C   0  0  0  0  0  0  0  0  0  0  0  0
   -0.2222   -3.8003    0.0000 C   0  0  0  0  0  0  0  0  0  0  0  0
    8.6685    1.1441    0.0000 C   0  0  0  0  0  0  0  0  0  0  0  0
   -8.1601    0.9227    0.0000 C   0  0  0  0  0  0  0  0  0  0  0  0
   -1.6614   -3.3778    0.0000 C   0  0  0  0  0  0  0  0  0  0  0  0
   10.1654    1.2394    0.0000 C   0  0  0  0  0  0  0  0  0  0  0  0
   -3.1007   -2.9554    0.0000 C   0  0  0  0  0  0  0  0  0  0  0  0
    2.8467    2.2538    0.0000 H   0  0  0  0  0  0  0  0  0  0  0  0
    0.0333    2.0748    0.0000 H   0  0  0  0  0  0  0  0  0  0  0  0
    1.9073    2.5296    0.0000 H   0  0  0  0  0  0  0  0  0  0  0  0
   -1.1347   -0.6142    0.0000 H   0  0  0  0  0  0  0  0  0  0  0  0
    3.7662   -1.0107    0.0000 H   0  0  0  0  0  0  0  0  0  0  0  0
    4.0125    3.4511    0.0000 H   0  0  0  0  0  0  0  0  0  0  0  0
    4.7443   -1.1426    0.0000 H   0  0  0  0  0  0  0  0  0  0  0  0
   -2.2674    2.8008    0.0000 H   0  0  0  0  0  0  0  0  0  0  0  0
   -2.2601   -0.1936    0.0000 H   0  0  0  0  0  0  0  0  0  0  0  0
    7.0065    3.6417    0.0000 H   0  0  0  0  0  0  0  0  0  0  0  0
    7.3365   -1.5440    0.0000 H   0  0  0  0  0  0  0  0  0  0  0  0
   -3.8342    3.8014    0.0000 H   0  0  0  0  0  0  0  0  0  0  0  0
   -3.5041   -1.3843    0.0000 H   0  0  0  0  0  0  0  0  0  0  0  0
    1.5709   -5.6804    0.0000 H   0  0  0  0  0  0  0  0  0  0  0  0
   -6.8281    3.6108    0.0000 H   0  0  0  0  0  0  0  0  0  0  0  0
   -6.4981   -1.5748    0.0000 H   0  0  0  0  0  0  0  0  0  0  0  0
   -0.6446   -5.2396    0.0000 H   0  0  0  0  0  0  0  0  0  0  0  0
    0.2003   -2.3610    0.0000 H   0  0  0  0  0  0  0  0  0  0  0  0
   -8.0648   -0.5743    0.0000 H   0  0  0  0  0  0  0  0  0  0  0  0
   -8.2553    2.4197    0.0000 H   0  0  0  0  0  0  0  0  0  0  0  0
  -10.3230   -0.5166    0.0000 H   0  0  0  0  0  0  0  0  0  0  0  0
   11.6624    1.3347    0.0000 H   0  0  0  0  0  0  0  0  0  0  0  0
   -4.5400   -2.5329    0.0000 H   0  0  0  0  0  0  0  0  0  0  0  0
  1  8  1  0
  1 11  1  0
  2  8  1  0
  2 14  1  0
  3 15  2  0
  4 27  1  0
  4 51  1  0
  5 15  1  0
  5 25  1  0
  5 44  1  0
  6  7  1  0
  6  9  1  0
  6 10  1  0
  6 31  1  1
  7  8  1  0
  7 32  1  0
  7 33  1  0
  8 34  1  1
  9 12  2  0
  9 13  1  0
 10 11  2  0
 10 35  1  0
 11 15  1  0
 12 17  1  0
 12 36  1  0
 13 18  2  0
 13 37  1  0
 14 16  1  0
 14 38  1  0
 14 39  1  0
 16 20  2  0
 16 21  1  0
 17 19  2  0
 17 40  1  0
 18 19  1  0
 18 41  1  0
 19 26  1  0
 20 23  1  0
 20 42  1  0
 21 24  2  0
 21 43  1  0
 22 23  2  0
 22 24  1  0
 22 27  1  0
 23 45  1  0
 24 46  1  0
 25 28  1  0
 25 47  1  0
 25 48  1  0
 26 29  3  0
 27 49  1  0
 27 50  1  0
 28 30  3  0
 29 52  1  0
 30 53  1  0
M  STY  8   1 DAT   2 DAT   3 DAT   4 DAT   5 DAT   6 DAT   7 DAT   8 DAT
M  STY  8   9 DAT  10 DAT  11 DAT  12 DAT  13 DAT  14 DAT  15 DAT  16 DAT
M  STY  8  17 DAT  18 DAT  19 DAT  20 DAT  21 DAT  22 DAT  23 DAT  24 DAT
M  STY  8  25 DAT  26 DAT  27 DAT  28 DAT  29 DAT  30 DAT  31 DAT  32 DAT
M  STY  8  33 DAT  34 DAT  35 DAT  36 DAT  37 DAT  38 DAT  39 DAT  40 DAT
M  STY  8  41 DAT  42 DAT  43 DAT  44 DAT  45 DAT  46 DAT  47 DAT  48 DAT
M  STY  5  49 DAT  50 DAT  51 DAT  52 DAT  53 DAT
M  SAL   1  1   1
M  SED   1 [#8&h0]
M  SAL   2  1   2
M  SED   2 [#8&h0]
M  SAL   3  1   3
M  SED   3 [#8&h0]
M  SAL   4  1   4
M  SED   4 [#8&h0]
M  SAL   5  1   5
M  SED   5 [#7&h0]
M  SAL   6  1   6
M  SED   6 [#6&h0]
M  SAL   7  1   7
M  SED   7 [#6&h0]
M  SAL   8  1   8
M  SED   8 [#6&h0]
M  SAL   9  1   9
M  SED   9 [#6&h0]
M  SAL  10  1  10
M  SED  10 [#6&h0]
M  SAL  11  1  11
M  SED  11 [#6&h0]
M  SAL  12  1  12
M  SED  12 [#6&h0]
M  SAL  13  1  13
M  SED  13 [#6&h0]
M  SAL  14  1  14
M  SED  14 [#6&h0]
M  SAL  15  1  15
M  SED  15 [#6&h0]
M  SAL  16  1  16
M  SED  16 [#6&h0]
M  SAL  17  1  17
M  SED  17 [#6&h0]
M  SAL  18  1  18
M  SED  18 [#6&h0]
M  SAL  19  1  19
M  SED  19 [#6&h0]
M  SAL  20  1  20
M  SED  20 [#6&h0]
M  SAL  21  1  21
M  SED  21 [#6&h0]
M  SAL  22  1  22
M  SED  22 [#6&h0]
M  SAL  23  1  23
M  SED  23 [#6&h0]
M  SAL  24  1  24
M  SED  24 [#6&h0]
M  SAL  25  1  25
M  SED  25 [#6&h0]
M  SAL  26  1  26
M  SED  26 [#6&h0]
M  SAL  27  1  27
M  SED  27 [#6&h0]
M  SAL  28  1  28
M  SED  28 [#6&h0]
M  SAL  29  1  29
M  SED  29 [#6&h0]
M  SAL  30  1  30
M  SED  30 [#6&h0]
M  SAL  31  1  31
M  SED  31 [#1&h0]
M  SAL  32  1  32
M  SED  32 [#1&h0]
M  SAL  33  1  33
M  SED  33 [#1&h0]
M  SAL  34  1  34
M  SED  34 [#1&h0]
M  SAL  35  1  35
M  SED  35 [#1&h0]
M  SAL  36  1  36
M  SED  36 [#1&h0]
M  SAL  37  1  37
M  SED  37 [#1&h0]
M  SAL  38  1  38
M  SED  38 [#1&h0]
M  SAL  39  1  39
M  SED  39 [#1&h0]
M  SAL  40  1  40
M  SED  40 [#1&h0]
M  SAL  41  1  41
M  SED  41 [#1&h0]
M  SAL  42  1  42
M  SED  42 [#1&h0]
M  SAL  43  1  43
M  SED  43 [#1&h0]
M  SAL  44  1  44
M  SED  44 [#1&h0]
M  SAL  45  1  45
M  SED  45 [#1&h0]
M  SAL  46  1  46
M  SED  46 [#1&h0]
M  SAL  47  1  47
M  SED  47 [#1&h0]
M  SAL  48  1  48
M  SED  48 [#1&h0]
M  SAL  49  1  49
M  SED  49 [#1&h0]
M  SAL  50  1  50
M  SED  50 [#1&h0]
M  SAL  51  1  51
M  SED  51 [#1&h0]
M  SAL  52  1  52
M  SED  52 [#1&h0]
M  SAL  53  1  53
M  SED  53 [#1&h0]
M  END
>  <Activity>  (44) 
0.01

>  <Mapped(file=2032.csv.activities,property=Cached(PUBCHEM_COMPOUND_CID))>  (44) 
100

>  <MatchIndices>  (44) 
204 

>  <PUBCHEM_ATOM_DEF_STEREO_COUNT>  (44) 
2

>  <PUBCHEM_ATOM_UDEF_STEREO_COUNT>  (44) 
0

>  <PUBCHEM_BONDANNOTATIONS>  (44) 
12  17  8
13  18  8
16  20  8
16  21  8
17  19  8
18  19  8
8  2  5
20  23  8
21  24  8
22  23  8
22  24  8
6  9  5
9  12  8
9  13  8

>  <PUBCHEM_BOND_DEF_STEREO_COUNT>  (44) 
0

>  <PUBCHEM_BOND_UDEF_STEREO_COUNT>  (44) 
0

>  <PUBCHEM_CACTVS_COMPLEXITY>  (44) 
695

>  <PUBCHEM_CACTVS_HBOND_ACCEPTOR>  (44) 
4

>  <PUBCHEM_CACTVS_HBOND_DONOR>  (44) 
2

>  <PUBCHEM_CACTVS_ROTATABLE_BOND>  (44) 
8

>  <PUBCHEM_CACTVS_SUBSKEYS>  (44) 
AAADceB6OAAAAAAAAAAAAAAAAAAAAAAAAAAwYIAAAAAAAAABQAAAHgAQCAAADQTxmAcwCILABgDIGiFSEAqCCAAgIAAIiIBICMgaNiKAMRyjcAAkxgGcuYeAwPAOwAAAAAAAAACAAAAAAAAAAAAAAAAAAA==

>  <PUBCHEM_CACTVS_TAUTO_COUNT>  (44) 
2

>  <PUBCHEM_CACTVS_TPSA>  (44) 
67.8

>  <PUBCHEM_COMPONENT_COUNT>  (44) 
1

>  <PUBCHEM_COMPOUND_CANONICALIZED>  (44) 
1

>  <PUBCHEM_COMPOUND_CID>  (44) 
24746733

>  <PUBCHEM_COORDINATE_TYPE>  (44) 
1
5
255

>  <PUBCHEM_EXACT_MASS>  (44) 
401.162708

>  <PUBCHEM_HEAVY_ATOM_COUNT>  (44) 
30

>  <PUBCHEM_ISOTOPIC_ATOM_COUNT>  (44) 
0

>  <PUBCHEM_IUPAC_CAS_NAME>  (44) 
(2S,4S)-4-(4-ethynylphenyl)-2-[[4-(hydroxymethyl)phenyl]methoxy]-N-prop-2-ynyl-3,4-dihydro-2H-pyran-6-carboxamide

>  <PUBCHEM_IUPAC_INCHI>  (44) 
InChI=1S/C25H23NO4/c1-3-13-26-25(28)23-14-22(21-11-9-18(4-2)10-12-21)15-24(30-23)29-17-20-7-5-19(16-27)6-8-20/h1-2,5-12,14,22,24,27H,13,15-17H2,(H,26,28)/t22-,24+/m1/s1

>  <PUBCHEM_IUPAC_INCHIKEY>  (44) 
PFNFLIQZTKQYNI-VWNXMTODSA-N

>  <PUBCHEM_IUPAC_NAME>  (44) 
(2S,4S)-4-(4-ethynylphenyl)-2-[[4-(hydroxymethyl)phenyl]methoxy]-N-prop-2-ynyl-3,4-dihydro-2H-pyran-6-carboxamide

>  <PUBCHEM_IUPAC_OPENEYE_NAME>  (44) 
(2S,4S)-4-(4-ethynylphenyl)-2-[[4-(hydroxymethyl)phenyl]methoxy]-N-prop-2-ynyl-3,4-dihydro-2H-pyran-6-carboxamide

>  <PUBCHEM_IUPAC_SYSTEMATIC_NAME>  (44) 
(2S,4S)-4-(4-ethynylphenyl)-2-[[4-(hydroxymethyl)phenyl]methoxy]-N-prop-2-ynyl-3,4-dihydro-2H-pyran-6-carboxamide

>  <PUBCHEM_IUPAC_TRADITIONAL_NAME>  (44) 
(2S,4S)-4-(4-ethynylphenyl)-2-(4-methylolbenzyl)oxy-N-propargyl-3,4-dihydro-2H-pyran-6-carboxamide

>  <PUBCHEM_MOLECULAR_FORMULA>  (44) 
C25H23NO4

>  <PUBCHEM_MOLECULAR_WEIGHT>  (44) 
401.45442

>  <PUBCHEM_MONOISOTOPIC_WEIGHT>  (44) 
401.162708

>  <PUBCHEM_OPENEYE_CAN_SMILES>  (44) 
C#CCNC(=O)C1=CC(CC(O1)OCC2=CC=C(C=C2)CO)C3=CC=C(C=C3)C#C

>  <PUBCHEM_OPENEYE_ISO_SMILES>  (44) 
C#CCNC(=O)C1=C[C@H](C[C@H](O1)OCC2=CC=C(C=C2)CO)C3=CC=C(C=C3)C#C

>  <PUBCHEM_TOTAL_CHARGE>  (44) 
0

>  <PUBCHEM_XLOGP3_AA>  (44) 
3.1

$$$$
Largest isolated from Written by BCL::WriteToMDL,24746735
     RDKit          2D

 52 54  0 52  0  0  0  0  0  0999 V2000
    0.1333   -1.9891    0.0000 O   0  0  0  0  0  0  0  0  0  0  0  0
   -0.9442    0.7618    0.0000 O   0  0  0  0  0  0  0  0  0  0  0  0
    3.2727   -4.4170    0.0000 O   0  0  0  0  0  0  0  0  0  0  0  0
   -9.9416    0.5434    0.0000 O   0  0  0  0  0  0  0  0  0  0  0  0
    0.7258   -4.9300    0.0000 N   0  0  0  0  0  0  0  0  0  0  0  0
    3.8835    0.0308    0.0000 C   0  0  0  0  0  0  0  0  0  0  0  0
    2.3840   -0.0056    0.0000 C   0  0  0  0  0  0  0  0  0  0  0  0
    3.5873    1.5013    0.0000 C   0  0  0  0  0  0  0  0  0  0  0  0
    5.3051   -0.4479    0.0000 C   0  0  0  0  0  0  0  0  0  0  0  0
    4.7126    2.4930    0.0000 C   0  0  0  0  0  0  0  0  0  0  0  0
    6.4305    0.5439    0.0000 C   0  0  0  0  0  0  0  0  0  0  0  0
    6.1342    2.0144    0.0000 C   0  0  0  0  0  0  0  0  0  0  0  0
    0.9624    0.4731    0.0000 C   0  0  0  0  0  0  0  0  0  0  0  0
    2.6802   -1.4760    0.0000 C   0  0  0  0  0  0  0  0  0  0  0  0
   -0.1629   -0.5187    0.0000 C   0  0  0  0  0  0  0  0  0  0  0  0
    1.5549   -2.4678    0.0000 C   0  0  0  0  0  0  0  0  0  0  0  0
    1.8511   -3.9383    0.0000 C   0  0  0  0  0  0  0  0  0  0  0  0
   -2.4438    0.7254    0.0000 C   0  0  0  0  0  0  0  0  0  0  0  0
   -3.9433    0.6890    0.0000 C   0  0  0  0  0  0  0  0  0  0  0  0
   -4.7246    1.9695    0.0000 C   0  0  0  0  0  0  0  0  0  0  0  0
   -4.6616   -0.6278    0.0000 C   0  0  0  0  0  0  0  0  0  0  0  0
   -6.2242    1.9331    0.0000 C   0  0  0  0  0  0  0  0  0  0  0  0
   -6.1612   -0.6642    0.0000 C   0  0  0  0  0  0  0  0  0  0  0  0
   -6.9425    0.6162    0.0000 C   0  0  0  0  0  0  0  0  0  0  0  0
   -8.4420    0.5798    0.0000 C   0  0  0  0  0  0  0  0  0  0  0  0
    3.8414   -1.4686    0.0000 H   0  0  0  0  0  0  0  0  0  0  0  0
    2.4064    0.7913    0.0000 H   0  0  0  0  0  0  0  0  0  0  0  0
    4.7527   -1.8425    0.0000 H   0  0  0  0  0  0  0  0  0  0  0  0
    6.4772   -1.3839    0.0000 H   0  0  0  0  0  0  0  0  0  0  0  0
    2.8060    2.7817    0.0000 H   0  0  0  0  0  0  0  0  0  0  0  0
    2.8152    1.3032    0.0000 H   0  0  0  0  0  0  0  0  0  0  0  0
    7.2117   -0.7366    0.0000 H   0  0  0  0  0  0  0  0  0  0  0  0
    7.8271    1.0910    0.0000 H   0  0  0  0  0  0  0  0  0  0  0  0
    5.4309    3.8099    0.0000 H   0  0  0  0  0  0  0  0  0  0  0  0
    3.5405    3.4291    0.0000 H   0  0  0  0  0  0  0  0  0  0  0  0
    7.6338    2.0507    0.0000 H   0  0  0  0  0  0  0  0  0  0  0  0
    6.3588    3.4975    0.0000 H   0  0  0  0  0  0  0  0  0  0  0  0
   -0.2097    1.4091    0.0000 H   0  0  0  0  0  0  0  0  0  0  0  0
    1.6807    1.7900    0.0000 H   0  0  0  0  0  0  0  0  0  0  0  0
    3.9437   -2.2845    0.0000 H   0  0  0  0  0  0  0  0  0  0  0  0
   -1.4825   -1.2319    0.0000 H   0  0  0  0  0  0  0  0  0  0  0  0
   -2.4802    2.2250    0.0000 H   0  0  0  0  0  0  0  0  0  0  0  0
   -2.5904   -0.7674    0.0000 H   0  0  0  0  0  0  0  0  0  0  0  0
    1.0220   -6.4005    0.0000 H   0  0  0  0  0  0  0  0  0  0  0  0
   -0.6958   -4.4514    0.0000 H   0  0  0  0  0  0  0  0  0  0  0  0
   -4.0064    3.2863    0.0000 H   0  0  0  0  0  0  0  0  0  0  0  0
   -3.8803   -1.9083    0.0000 H   0  0  0  0  0  0  0  0  0  0  0  0
   -7.0055    3.2135    0.0000 H   0  0  0  0  0  0  0  0  0  0  0  0
   -6.8794   -1.9811    0.0000 H   0  0  0  0  0  0  0  0  0  0  0  0
   -8.4056   -0.9197    0.0000 H   0  0  0  0  0  0  0  0  0  0  0  0
   -8.4784    2.0794    0.0000 H   0  0  0  0  0  0  0  0  0  0  0  0
  -10.6598   -0.7734    0.0000 H   0  0  0  0  0  0  0  0  0  0  0  0
  1 15  1  0
  1 16  1  0
  2 15  1  0
  2 18  1  0
  3 17  2  0
  4 25  1  0
  4 52  1  0
  5 17  1  0
  5 44  1  0
  5 45  1  0
  6  7  1  0
  6  8  1  0
  6  9  1  0
  6 26  1  0
  7 13  1  0
  7 14  1  0
  7 27  1  1
  8 10  1  0
  8 30  1  0
  8 31  1  0
  9 11  1  0
  9 28  1  0
  9 29  1  0
 10 12  1  0
 10 34  1  0
 10 35  1  0
 11 12  1  0
 11 32  1  0
 11 33  1  0
 12 36  1  0
 12 37  1  0
 13 15  1  0
 13 38  1  0
 13 39  1  0
 14 16  2  0
 14 40  1  0
 15 41  1  1
 16 17  1  0
 18 19  1  0
 18 42  1  0
 18 43  1  0
 19 20  2  0
 19 21  1  0
 20 22  1  0
 20 46  1  0
 21 23  2  0
 21 47  1  0
 22 24  2  0
 22 48  1  0
 23 24  1  0
 23 49  1  0
 24 25  1  0
 25 50  1  0
 25 51  1  0
M  STY  8   1 DAT   2 DAT   3 DAT   4 DAT   5 DAT   6 DAT   7 DAT   8 DAT
M  STY  8   9 DAT  10 DAT  11 DAT  12 DAT  13 DAT  14 DAT  15 DAT  16 DAT
M  STY  8  17 DAT  18 DAT  19 DAT  20 DAT  21 DAT  22 DAT  23 DAT  24 DAT
M  STY  8  25 DAT  26 DAT  27 DAT  28 DAT  29 DAT  30 DAT  31 DAT  32 DAT
M  STY  8  33 DAT  34 DAT  35 DAT  36 DAT  37 DAT  38 DAT  39 DAT  40 DAT
M  STY  8  41 DAT  42 DAT  43 DAT  44 DAT  45 DAT  46 DAT  47 DAT  48 DAT
M  STY  4  49 DAT  50 DAT  51 DAT  52 DAT
M  SAL   1  1   1
M  SED   1 [#8&h0]
M  SAL   2  1   2
M  SED   2 [#8&h0]
M  SAL   3  1   3
M  SED   3 [#8&h0]
M  SAL   4  1   4
M  SED   4 [#8&h0]
M  SAL   5  1   5
M  SED   5 [#7&h0]
M  SAL   6  1   6
M  SED   6 [#6&h0]
M  SAL   7  1   7
M  SED   7 [#6&h0]
M  SAL   8  1   8
M  SED   8 [#6&h0]
M  SAL   9  1   9
M  SED   9 [#6&h0]
M  SAL  10  1  10
M  SED  10 [#6&h0]
M  SAL  11  1  11
M  SED  11 [#6&h0]
M  SAL  12  1  12
M  SED  12 [#6&h0]
M  SAL  13  1  13
M  SED  13 [#6&h0]
M  SAL  14  1  14
M  SED  14 [#6&h0]
M  SAL  15  1  15
M  SED  15 [#6&h0]
M  SAL  16  1  16
M  SED  16 [#6&h0]
M  SAL  17  1  17
M  SED  17 [#6&h0]
M  SAL  18  1  18
M  SED  18 [#6&h0]
M  SAL  19  1  19
M  SED  19 [#6&h0]
M  SAL  20  1  20
M  SED  20 [#6&h0]
M  SAL  21  1  21
M  SED  21 [#6&h0]
M  SAL  22  1  22
M  SED  22 [#6&h0]
M  SAL  23  1  23
M  SED  23 [#6&h0]
M  SAL  24  1  24
M  SED  24 [#6&h0]
M  SAL  25  1  25
M  SED  25 [#6&h0]
M  SAL  26  1  26
M  SED  26 [#1&h0]
M  SAL  27  1  27
M  SED  27 [#1&h0]
M  SAL  28  1  28
M  SED  28 [#1&h0]
M  SAL  29  1  29
M  SED  29 [#1&h0]
M  SAL  30  1  30
M  SED  30 [#1&h0]
M  SAL  31  1  31
M  SED  31 [#1&h0]
M  SAL  32  1  32
M  SED  32 [#1&h0]
M  SAL  33  1  33
M  SED  33 [#1&h0]
M  SAL  34  1  34
M  SED  34 [#1&h0]
M  SAL  35  1  35
M  SED  35 [#1&h0]
M  SAL  36  1  36
M  SED  36 [#1&h0]
M  SAL  37  1  37
M  SED  37 [#1&h0]
M  SAL  38  1  38
M  SED  38 [#1&h0]
M  SAL  39  1  39
M  SED  39 [#1&h0]
M  SAL  40  1  40
M  SED  40 [#1&h0]
M  SAL  41  1  41
M  SED  41 [#1&h0]
M  SAL  42  1  42
M  SED  42 [#1&h0]
M  SAL  43  1  43
M  SED  43 [#1&h0]
M  SAL  44  1  44
M  SED  44 [#1&h0]
M  SAL  45  1  45
M  SED  45 [#1&h0]
M  SAL  46  1  46
M  SED  46 [#1&h0]
M  SAL  47  1  47
M  SED  47 [#1&h0]
M  SAL  48  1  48
M  SED  48 [#1&h0]
M  SAL  49  1  49
M  SED  49 [#1&h0]
M  SAL  50  1  50
M  SED  50 [#1&h0]
M  SAL  51  1  51
M  SED  51 [#1&h0]
M  SAL  52  1  52
M  SED  52 [#1&h0]
M  END
>  <Activity>  (45) 
0.01

>  <Mapped(file=2032.csv.activities,property=Cached(PUBCHEM_COMPOUND_CID))>  (45) 
100

>  <MatchIndices>  (45) 
132 

>  <PUBCHEM_ATOM_DEF_STEREO_COUNT>  (45) 
2

>  <PUBCHEM_ATOM_UDEF_STEREO_COUNT>  (45) 
0

>  <PUBCHEM_BONDANNOTATIONS>  (45) 
19  20  8
19  21  8
15  2  5
20  22  8
21  23  8
22  24  8
23  24  8
7  27  6

>  <PUBCHEM_BOND_DEF_STEREO_COUNT>  (45) 
0

>  <PUBCHEM_BOND_UDEF_STEREO_COUNT>  (45) 
0

>  <PUBCHEM_CACTVS_COMPLEXITY>  (45) 
464

>  <PUBCHEM_CACTVS_HBOND_ACCEPTOR>  (45) 
4

>  <PUBCHEM_CACTVS_HBOND_DONOR>  (45) 
2

>  <PUBCHEM_CACTVS_ROTATABLE_BOND>  (45) 
6

>  <PUBCHEM_CACTVS_SUBSKEYS>  (45) 
AAADceB6OAAAAAAAAAAAAAAAAAAAAAAAAAAwYIAAAAAAAAABAAAAHgAQCAAADQSxmAMwCIBABgCIAiFSEAKCCAAgIAAIiABACMgaNiKAMRyjcAAkwAEMuYeAwPAOwAAAAAAAAACAAAAAAAAAAAAAAAAAAA==

>  <PUBCHEM_CACTVS_TAUTO_COUNT>  (45) 
2

>  <PUBCHEM_CACTVS_TPSA>  (45) 
81.8

>  <PUBCHEM_COMPONENT_COUNT>  (45) 
1

>  <PUBCHEM_COMPOUND_CANONICALIZED>  (45) 
1

>  <PUBCHEM_COMPOUND_CID>  (45) 
24746735

>  <PUBCHEM_COORDINATE_TYPE>  (45) 
1
5
255

>  <PUBCHEM_EXACT_MASS>  (45) 
345.194008

>  <PUBCHEM_HEAVY_ATOM_COUNT>  (45) 
25

>  <PUBCHEM_ISOTOPIC_ATOM_COUNT>  (45) 
0

>  <PUBCHEM_IUPAC_CAS_NAME>  (45) 
(2S,4R)-4-cyclohexyl-2-[[4-(hydroxymethyl)phenyl]methoxy]-3,4-dihydro-2H-pyran-6-carboxamide

>  <PUBCHEM_IUPAC_INCHI>  (45) 
InChI=1S/C20H27NO4/c21-20(23)18-10-17(16-4-2-1-3-5-16)11-19(25-18)24-13-15-8-6-14(12-22)7-9-15/h6-10,16-17,19,22H,1-5,11-13H2,(H2,21,23)/t17-,19+/m1/s1

>  <PUBCHEM_IUPAC_INCHIKEY>  (45) 
QRBJYWAFDJHZPG-MJGOQNOKSA-N

>  <PUBCHEM_IUPAC_NAME>  (45) 
(2S,4R)-4-cyclohexyl-2-[[4-(hydroxymethyl)phenyl]methoxy]-3,4-dihydro-2H-pyran-6-carboxamide

>  <PUBCHEM_IUPAC_OPENEYE_NAME>  (45) 
(2S,4R)-4-cyclohexyl-2-[[4-(hydroxymethyl)phenyl]methoxy]-3,4-dihydro-2H-pyran-6-carboxamide

>  <PUBCHEM_IUPAC_SYSTEMATIC_NAME>  (45) 
(2S,4R)-4-cyclohexyl-2-[[4-(hydroxymethyl)phenyl]methoxy]-3,4-dihydro-2H-pyran-6-carboxamide

>  <PUBCHEM_IUPAC_TRADITIONAL_NAME>  (45) 
(2S,4R)-4-cyclohexyl-2-(4-methylolbenzyl)oxy-3,4-dihydro-2H-pyran-6-carboxamide

>  <PUBCHEM_MOLECULAR_FORMULA>  (45) 
C20H27NO4

>  <PUBCHEM_MOLECULAR_WEIGHT>  (45) 
345.43268

>  <PUBCHEM_MONOISOTOPIC_WEIGHT>  (45) 
345.194008

>  <PUBCHEM_OPENEYE_CAN_SMILES>  (45) 
C1CCC(CC1)C2CC(OC(=C2)C(=O)N)OCC3=CC=C(C=C3)CO

>  <PUBCHEM_OPENEYE_ISO_SMILES>  (45) 
C1CCC(CC1)[C@H]2C[C@H](OC(=C2)C(=O)N)OCC3=CC=C(C=C3)CO

>  <PUBCHEM_TOTAL_CHARGE>  (45) 
0

>  <PUBCHEM_XLOGP3_AA>  (45) 
3.4

$$$$
Largest isolated from Written by BCL::WriteToMDL,731799
     RDKit          2D

 44 46  0 44  0  0  0  0  0  0999 V2000
   -0.9939   -1.7522    0.0000 O   0  0  0  0  0  0  0  0  0  0  0  0
   -0.2732    2.1505    0.0000 O   0  0  0  0  0  0  0  0  0  0  0  0
   -2.5134    0.8346    0.0000 O   0  0  0  0  0  0  0  0  0  0  0  0
    1.9865    0.8684    0.0000 N   0  0  0  0  0  0  0  0  0  0  0  0
    4.2267    2.1843    0.0000 C   0  0  0  0  0  0  0  0  0  0  0  0
    2.7267    2.1730    0.0000 C   0  0  0  0  0  0  0  0  0  0  0  0
    4.9864    0.8910    0.0000 C   0  0  0  0  0  0  0  0  0  0  0  0
    4.2462   -0.4137    0.0000 C   0  0  0  0  0  0  0  0  0  0  0  0
    2.7463   -0.4250    0.0000 C   0  0  0  0  0  0  0  0  0  0  0  0
    5.0060   -1.7070    0.0000 C   0  0  0  0  0  0  0  0  0  0  0  0
    0.4866    0.8571    0.0000 C   0  0  0  0  0  0  0  0  0  0  0  0
    2.0061   -1.7296    0.0000 C   0  0  0  0  0  0  0  0  0  0  0  0
    4.2658   -3.0117    0.0000 C   0  0  0  0  0  0  0  0  0  0  0  0
    2.7658   -3.0230    0.0000 C   0  0  0  0  0  0  0  0  0  0  0  0
   -0.2536   -0.4475    0.0000 C   0  0  0  0  0  0  0  0  0  0  0  0
   -2.4938   -1.7634    0.0000 C   0  0  0  0  0  0  0  0  0  0  0  0
   -3.2536   -0.4701    0.0000 C   0  0  0  0  0  0  0  0  0  0  0  0
   -3.2340   -3.0681    0.0000 C   0  0  0  0  0  0  0  0  0  0  0  0
   -4.7535   -0.4814    0.0000 C   0  0  0  0  0  0  0  0  0  0  0  0
   -4.7340   -3.0794    0.0000 C   0  0  0  0  0  0  0  0  0  0  0  0
   -5.4937   -1.7860    0.0000 C   0  0  0  0  0  0  0  0  0  0  0  0
   -3.2731    2.1279    0.0000 C   0  0  0  0  0  0  0  0  0  0  0  0
   -4.0328    3.4213    0.0000 C   0  0  0  0  0  0  0  0  0  0  0  0
    5.6323    2.7079    0.0000 H   0  0  0  0  0  0  0  0  0  0  0  0
    3.9551    3.6595    0.0000 H   0  0  0  0  0  0  0  0  0  0  0  0
    2.9761    3.6522    0.0000 H   0  0  0  0  0  0  0  0  0  0  0  0
    1.3134    2.6755    0.0000 H   0  0  0  0  0  0  0  0  0  0  0  0
    6.1427   -0.0646    0.0000 H   0  0  0  0  0  0  0  0  0  0  0  0
    6.1282    1.8637    0.0000 H   0  0  0  0  0  0  0  0  0  0  0  0
    6.5059   -1.6958    0.0000 H   0  0  0  0  0  0  0  0  0  0  0  0
    1.0302   -1.8569    0.0000 H   0  0  0  0  0  0  0  0  0  0  0  0
    5.0255   -4.3051    0.0000 H   0  0  0  0  0  0  0  0  0  0  0  0
    2.0256   -4.3276    0.0000 H   0  0  0  0  0  0  0  0  0  0  0  0
    0.5367   -1.0339    0.0000 H   0  0  0  0  0  0  0  0  0  0  0  0
   -1.5583    0.2927    0.0000 H   0  0  0  0  0  0  0  0  0  0  0  0
   -2.4743   -4.3614    0.0000 H   0  0  0  0  0  0  0  0  0  0  0  0
   -5.5133    0.8120    0.0000 H   0  0  0  0  0  0  0  0  0  0  0  0
   -5.4742   -4.3840    0.0000 H   0  0  0  0  0  0  0  0  0  0  0  0
   -6.9937   -1.7973    0.0000 H   0  0  0  0  0  0  0  0  0  0  0  0
   -1.9797    2.8877    0.0000 H   0  0  0  0  0  0  0  0  0  0  0  0
   -4.5665    1.3682    0.0000 H   0  0  0  0  0  0  0  0  0  0  0  0
   -2.7395    4.1810    0.0000 H   0  0  0  0  0  0  0  0  0  0  0  0
   -5.3262    2.6615    0.0000 H   0  0  0  0  0  0  0  0  0  0  0  0
   -4.7926    4.7146    0.0000 H   0  0  0  0  0  0  0  0  0  0  0  0
  1 15  1  0
  1 16  1  0
  2 11  2  0
  3 17  1  0
  3 22  1  0
  4  6  1  0
  4  9  1  0
  4 11  1  0
  5  6  1  0
  5  7  1  0
  5 24  1  0
  5 25  1  0
  6 26  1  0
  6 27  1  0
  7  8  1  0
  7 28  1  0
  7 29  1  0
  8  9  2  0
  8 10  1  0
  9 12  1  0
 10 13  2  0
 10 30  1  0
 11 15  1  0
 12 14  2  0
 12 31  1  0
 13 14  1  0
 13 32  1  0
 14 33  1  0
 15 34  1  0
 15 35  1  0
 16 17  2  0
 16 18  1  0
 17 19  1  0
 18 20  2  0
 18 36  1  0
 19 21  2  0
 19 37  1  0
 20 21  1  0
 20 38  1  0
 21 39  1  0
 22 23  1  0
 22 40  1  0
 22 41  1  0
 23 42  1  0
 23 43  1  0
 23 44  1  0
M  STY  8   1 DAT   2 DAT   3 DAT   4 DAT   5 DAT   6 DAT   7 DAT   8 DAT
M  STY  8   9 DAT  10 DAT  11 DAT  12 DAT  13 DAT  14 DAT  15 DAT  16 DAT
M  STY  8  17 DAT  18 DAT  19 DAT  20 DAT  21 DAT  22 DAT  23 DAT  24 DAT
M  STY  8  25 DAT  26 DAT  27 DAT  28 DAT  29 DAT  30 DAT  31 DAT  32 DAT
M  STY  8  33 DAT  34 DAT  35 DAT  36 DAT  37 DAT  38 DAT  39 DAT  40 DAT
M  STY  4  41 DAT  42 DAT  43 DAT  44 DAT
M  SAL   1  1   1
M  SED   1 [#8&h0]
M  SAL   2  1   2
M  SED   2 [#8&h0]
M  SAL   3  1   3
M  SED   3 [#8&h0]
M  SAL   4  1   4
M  SED   4 [#7&h0]
M  SAL   5  1   5
M  SED   5 [#6&h0]
M  SAL   6  1   6
M  SED   6 [#6&h0]
M  SAL   7  1   7
M  SED   7 [#6&h0]
M  SAL   8  1   8
M  SED   8 [#6&h0]
M  SAL   9  1   9
M  SED   9 [#6&h0]
M  SAL  10  1  10
M  SED  10 [#6&h0]
M  SAL  11  1  11
M  SED  11 [#6&h0]
M  SAL  12  1  12
M  SED  12 [#6&h0]
M  SAL  13  1  13
M  SED  13 [#6&h0]
M  SAL  14  1  14
M  SED  14 [#6&h0]
M  SAL  15  1  15
M  SED  15 [#6&h0]
M  SAL  16  1  16
M  SED  16 [#6&h0]
M  SAL  17  1  17
M  SED  17 [#6&h0]
M  SAL  18  1  18
M  SED  18 [#6&h0]
M  SAL  19  1  19
M  SED  19 [#6&h0]
M  SAL  20  1  20
M  SED  20 [#6&h0]
M  SAL  21  1  21
M  SED  21 [#6&h0]
M  SAL  22  1  22
M  SED  22 [#6&h0]
M  SAL  23  1  23
M  SED  23 [#6&h0]
M  SAL  24  1  24
M  SED  24 [#1&h0]
M  SAL  25  1  25
M  SED  25 [#1&h0]
M  SAL  26  1  26
M  SED  26 [#1&h0]
M  SAL  27  1  27
M  SED  27 [#1&h0]
M  SAL  28  1  28
M  SED  28 [#1&h0]
M  SAL  29  1  29
M  SED  29 [#1&h0]
M  SAL  30  1  30
M  SED  30 [#1&h0]
M  SAL  31  1  31
M  SED  31 [#1&h0]
M  SAL  32  1  32
M  SED  32 [#1&h0]
M  SAL  33  1  33
M  SED  33 [#1&h0]
M  SAL  34  1  34
M  SED  34 [#1&h0]
M  SAL  35  1  35
M  SED  35 [#1&h0]
M  SAL  36  1  36
M  SED  36 [#1&h0]
M  SAL  37  1  37
M  SED  37 [#1&h0]
M  SAL  38  1  38
M  SED  38 [#1&h0]
M  SAL  39  1  39
M  SED  39 [#1&h0]
M  SAL  40  1  40
M  SED  40 [#1&h0]
M  SAL  41  1  41
M  SED  41 [#1&h0]
M  SAL  42  1  42
M  SED  42 [#1&h0]
M  SAL  43  1  43
M  SED  43 [#1&h0]
M  SAL  44  1  44
M  SED  44 [#1&h0]
M  END
>  <Activity>  (46) 
0.01

>  <Mapped(file=2032.csv.activities,property=Cached(PUBCHEM_COMPOUND_CID))>  (46) 
100

>  <MatchIndices>  (46) 
36 

>  <PUBCHEM_ATOM_DEF_STEREO_COUNT>  (46) 
0

>  <PUBCHEM_ATOM_UDEF_STEREO_COUNT>  (46) 
0

>  <PUBCHEM_BONDANNOTATIONS>  (46) 
10  13  8
12  14  8
13  14  8
16  17  8
16  18  8
17  19  8
18  20  8
19  21  8
20  21  8
8  10  8
8  9  8
9  12  8

>  <PUBCHEM_BOND_DEF_STEREO_COUNT>  (46) 
0

>  <PUBCHEM_BOND_UDEF_STEREO_COUNT>  (46) 
0

>  <PUBCHEM_CACTVS_COMPLEXITY>  (46) 
387

>  <PUBCHEM_CACTVS_HBOND_ACCEPTOR>  (46) 
3

>  <PUBCHEM_CACTVS_HBOND_DONOR>  (46) 
0

>  <PUBCHEM_CACTVS_ROTATABLE_BOND>  (46) 
5

>  <PUBCHEM_CACTVS_SUBSKEYS>  (46) 
AAADceB6MAAAAAAAAAAAAAAAAAAAAAAAAAA8YIAAAAAAAACxQAAAHgAAAAAADAzhmAYyxoMABACIAiVSUAKCCAAhIgAIiABO7IgPJiLEsZ+HOCrkxhHa6AeQwIAOAAAAAAACQAAAAAAAAASAAAAAAAAAAA==

>  <PUBCHEM_CACTVS_TAUTO_COUNT>  (46) 
1

>  <PUBCHEM_CACTVS_TPSA>  (46) 
38.8

>  <PUBCHEM_COMPONENT_COUNT>  (46) 
1

>  <PUBCHEM_COMPOUND_CANONICALIZED>  (46) 
1

>  <PUBCHEM_COMPOUND_CID>  (46) 
731799

>  <PUBCHEM_COORDINATE_TYPE>  (46) 
1
5
255

>  <PUBCHEM_EXACT_MASS>  (46) 
311.152144

>  <PUBCHEM_HEAVY_ATOM_COUNT>  (46) 
23

>  <PUBCHEM_ISOTOPIC_ATOM_COUNT>  (46) 
0

>  <PUBCHEM_IUPAC_CAS_NAME>  (46) 
1-(3,4-dihydro-2H-quinolin-1-yl)-2-(2-ethoxyphenoxy)ethanone

>  <PUBCHEM_IUPAC_INCHI>  (46) 
InChI=1S/C19H21NO3/c1-2-22-17-11-5-6-12-18(17)23-14-19(21)20-13-7-9-15-8-3-4-10-16(15)20/h3-6,8,10-12H,2,7,9,13-14H2,1H3

>  <PUBCHEM_IUPAC_INCHIKEY>  (46) 
KAAAYULNQBOWBP-UHFFFAOYSA-N

>  <PUBCHEM_IUPAC_NAME>  (46) 
1-(3,4-dihydro-2H-quinolin-1-yl)-2-(2-ethoxyphenoxy)ethanone

>  <PUBCHEM_IUPAC_OPENEYE_NAME>  (46) 
1-(3,4-dihydro-2H-quinolin-1-yl)-2-(2-ethoxyphenoxy)ethanone

>  <PUBCHEM_IUPAC_SYSTEMATIC_NAME>  (46) 
1-(3,4-dihydro-2H-quinolin-1-yl)-2-(2-ethoxyphenoxy)ethanone

>  <PUBCHEM_IUPAC_TRADITIONAL_NAME>  (46) 
1-(3,4-dihydro-2H-quinolin-1-yl)-2-(2-ethoxyphenoxy)ethanone

>  <PUBCHEM_MOLECULAR_FORMULA>  (46) 
C19H21NO3

>  <PUBCHEM_MOLECULAR_WEIGHT>  (46) 
311.37494

>  <PUBCHEM_MONOISOTOPIC_WEIGHT>  (46) 
311.152144

>  <PUBCHEM_OPENEYE_CAN_SMILES>  (46) 
CCOC1=CC=CC=C1OCC(=O)N2CCCC3=CC=CC=C32

>  <PUBCHEM_OPENEYE_ISO_SMILES>  (46) 
CCOC1=CC=CC=C1OCC(=O)N2CCCC3=CC=CC=C32

>  <PUBCHEM_TOTAL_CHARGE>  (46) 
0

>  <PUBCHEM_XLOGP3_AA>  (46) 
3.7

$$$$
Largest isolated from Written by BCL::WriteToMDL,1096489
     RDKit          2D

 37 39  0 37  0  0  0  0  0  0999 V2000
    8.1561    0.5825    0.0000 F   0  0  0  0  0  0  0  0  0  0  0  0
   -8.2482    1.5813    0.0000 F   0  0  0  0  0  0  0  0  0  0  0  0
    1.3078   -0.8070    0.0000 N   0  0  0  0  0  0  0  0  0  0  0  0
   -1.3207   -1.2926    0.0000 N   0  0  0  0  0  0  0  0  0  0  0  0
   -0.1686    1.1194    0.0000 N   0  0  0  0  0  0  0  0  0  0  0  0
    2.1581    0.4288    0.0000 C   0  0  0  0  0  0  0  0  0  0  0  0
   -0.1302   -0.3801    0.0000 C   0  0  0  0  0  0  0  0  0  0  0  0
   -2.7062   -0.7179    0.0000 C   0  0  0  0  0  0  0  0  0  0  0  0
    3.6576    0.4672    0.0000 C   0  0  0  0  0  0  0  0  0  0  0  0
    1.2456    1.6193    0.0000 C   0  0  0  0  0  0  0  0  0  0  0  0
   -4.0917   -0.1431    0.0000 C   0  0  0  0  0  0  0  0  0  0  0  0
    1.8077   -2.2212    0.0000 C   0  0  0  0  0  0  0  0  0  0  0  0
    4.4406   -0.8122    0.0000 C   0  0  0  0  0  0  0  0  0  0  0  0
    4.3741    1.7850    0.0000 C   0  0  0  0  0  0  0  0  0  0  0  0
   -5.2823   -1.0556    0.0000 C   0  0  0  0  0  0  0  0  0  0  0  0
   -4.2867    1.3442    0.0000 C   0  0  0  0  0  0  0  0  0  0  0  0
    5.9402   -0.7737    0.0000 C   0  0  0  0  0  0  0  0  0  0  0  0
    5.8736    1.8235    0.0000 C   0  0  0  0  0  0  0  0  0  0  0  0
    6.6566    0.5441    0.0000 C   0  0  0  0  0  0  0  0  0  0  0  0
   -6.6678   -0.4808    0.0000 C   0  0  0  0  0  0  0  0  0  0  0  0
   -5.6722    1.9190    0.0000 C   0  0  0  0  0  0  0  0  0  0  0  0
   -6.8627    1.0065    0.0000 C   0  0  0  0  0  0  0  0  0  0  0  0
   -3.2810   -2.1034    0.0000 H   0  0  0  0  0  0  0  0  0  0  0  0
   -2.1314    0.6677    0.0000 H   0  0  0  0  0  0  0  0  0  0  0  0
   -1.1257   -2.7799    0.0000 H   0  0  0  0  0  0  0  0  0  0  0  0
    1.6724    3.0573    0.0000 H   0  0  0  0  0  0  0  0  0  0  0  0
    2.9941   -1.9589    0.0000 H   0  0  0  0  0  0  0  0  0  0  0  0
    0.3935   -2.7211    0.0000 H   0  0  0  0  0  0  0  0  0  0  0  0
    2.3077   -3.6354    0.0000 H   0  0  0  0  0  0  0  0  0  0  0  0
    3.9948   -1.9424    0.0000 H   0  0  0  0  0  0  0  0  0  0  0  0
    3.5910    3.0644    0.0000 H   0  0  0  0  0  0  0  0  0  0  0  0
   -5.0873   -2.5428    0.0000 H   0  0  0  0  0  0  0  0  0  0  0  0
   -3.0962    2.2567    0.0000 H   0  0  0  0  0  0  0  0  0  0  0  0
    6.7232   -2.0531    0.0000 H   0  0  0  0  0  0  0  0  0  0  0  0
    6.5900    3.1413    0.0000 H   0  0  0  0  0  0  0  0  0  0  0  0
   -7.8583   -1.3933    0.0000 H   0  0  0  0  0  0  0  0  0  0  0  0
   -5.8672    3.4063    0.0000 H   0  0  0  0  0  0  0  0  0  0  0  0
  1 19  1  0
  2 22  1  0
  3  6  1  0
  3  7  1  0
  3 12  1  0
  4  7  1  0
  4  8  1  0
  4 25  1  0
  5  7  2  0
  5 10  1  0
  6  9  1  0
  6 10  2  0
  8 11  1  0
  8 23  1  0
  8 24  1  0
  9 13  2  0
  9 14  1  0
 10 26  1  0
 11 15  2  0
 11 16  1  0
 12 27  1  0
 12 28  1  0
 12 29  1  0
 13 17  1  0
 13 30  1  0
 14 18  2  0
 14 31  1  0
 15 20  1  0
 15 32  1  0
 16 21  2  0
 16 33  1  0
 17 19  2  0
 17 34  1  0
 18 19  1  0
 18 35  1  0
 20 22  2  0
 20 36  1  0
 21 22  1  0
 21 37  1  0
M  STY  8   1 DAT   2 DAT   3 DAT   4 DAT   5 DAT   6 DAT   7 DAT   8 DAT
M  STY  8   9 DAT  10 DAT  11 DAT  12 DAT  13 DAT  14 DAT  15 DAT  16 DAT
M  STY  8  17 DAT  18 DAT  19 DAT  20 DAT  21 DAT  22 DAT  23 DAT  24 DAT
M  STY  8  25 DAT  26 DAT  27 DAT  28 DAT  29 DAT  30 DAT  31 DAT  32 DAT
M  STY  5  33 DAT  34 DAT  35 DAT  36 DAT  37 DAT
M  SAL   1  1   1
M  SED   1 [#9&h0]
M  SAL   2  1   2
M  SED   2 [#9&h0]
M  SAL   3  1   3
M  SED   3 [#7&h0]
M  SAL   4  1   4
M  SED   4 [#7&h0]
M  SAL   5  1   5
M  SED   5 [#7&h0]
M  SAL   6  1   6
M  SED   6 [#6&h0]
M  SAL   7  1   7
M  SED   7 [#6&h0]
M  SAL   8  1   8
M  SED   8 [#6&h0]
M  SAL   9  1   9
M  SED   9 [#6&h0]
M  SAL  10  1  10
M  SED  10 [#6&h0]
M  SAL  11  1  11
M  SED  11 [#6&h0]
M  SAL  12  1  12
M  SED  12 [#6&h0]
M  SAL  13  1  13
M  SED  13 [#6&h0]
M  SAL  14  1  14
M  SED  14 [#6&h0]
M  SAL  15  1  15
M  SED  15 [#6&h0]
M  SAL  16  1  16
M  SED  16 [#6&h0]
M  SAL  17  1  17
M  SED  17 [#6&h0]
M  SAL  18  1  18
M  SED  18 [#6&h0]
M  SAL  19  1  19
M  SED  19 [#6&h0]
M  SAL  20  1  20
M  SED  20 [#6&h0]
M  SAL  21  1  21
M  SED  21 [#6&h0]
M  SAL  22  1  22
M  SED  22 [#6&h0]
M  SAL  23  1  23
M  SED  23 [#1&h0]
M  SAL  24  1  24
M  SED  24 [#1&h0]
M  SAL  25  1  25
M  SED  25 [#1&h0]
M  SAL  26  1  26
M  SED  26 [#1&h0]
M  SAL  27  1  27
M  SED  27 [#1&h0]
M  SAL  28  1  28
M  SED  28 [#1&h0]
M  SAL  29  1  29
M  SED  29 [#1&h0]
M  SAL  30  1  30
M  SED  30 [#1&h0]
M  SAL  31  1  31
M  SED  31 [#1&h0]
M  SAL  32  1  32
M  SED  32 [#1&h0]
M  SAL  33  1  33
M  SED  33 [#1&h0]
M  SAL  34  1  34
M  SED  34 [#1&h0]
M  SAL  35  1  35
M  SED  35 [#1&h0]
M  SAL  36  1  36
M  SED  36 [#1&h0]
M  SAL  37  1  37
M  SED  37 [#1&h0]
M  END
>  <Activity>  (47) 
0.01

>  <Mapped(file=2032.csv.activities,property=Cached(PUBCHEM_COMPOUND_CID))>  (47) 
100

>  <MatchIndices>  (47) 
34 

>  <PUBCHEM_ATOM_DEF_STEREO_COUNT>  (47) 
0

>  <PUBCHEM_ATOM_UDEF_STEREO_COUNT>  (47) 
0

>  <PUBCHEM_BONDANNOTATIONS>  (47) 
11  15  8
11  16  8
13  17  8
14  18  8
15  20  8
16  21  8
17  19  8
18  19  8
20  22  8
21  22  8
3  6  8
3  7  8
5  10  8
5  7  8
6  10  8
9  13  8
9  14  8

>  <PUBCHEM_BOND_DEF_STEREO_COUNT>  (47) 
0

>  <PUBCHEM_BOND_UDEF_STEREO_COUNT>  (47) 
0

>  <PUBCHEM_CACTVS_COMPLEXITY>  (47) 
339

>  <PUBCHEM_CACTVS_HBOND_ACCEPTOR>  (47) 
2

>  <PUBCHEM_CACTVS_HBOND_DONOR>  (47) 
1

>  <PUBCHEM_CACTVS_ROTATABLE_BOND>  (47) 
4

>  <PUBCHEM_CACTVS_SUBSKEYS>  (47) 
AAADccB7AYAAAAAAAAAAAAAAAAAAAWAAAAAwYAAAAAAAAAAB0AAAHQAQAAAADAjBHgw/kJfMEACgAzRnZACCgC0xEqAJ2KA4dJiIaKLAmRGUIAhogAJIyCcQgIAOAAAAAAAAAAAAAAAAAAAAAAAAAAAAAA==

>  <PUBCHEM_CACTVS_TAUTO_COUNT>  (47) 
2

>  <PUBCHEM_CACTVS_TPSA>  (47) 
29.8

>  <PUBCHEM_COMPONENT_COUNT>  (47) 
1

>  <PUBCHEM_COMPOUND_CANONICALIZED>  (47) 
1

>  <PUBCHEM_COMPOUND_CID>  (47) 
1096489

>  <PUBCHEM_COORDINATE_TYPE>  (47) 
1
5
255

>  <PUBCHEM_EXACT_MASS>  (47) 
299.123404

>  <PUBCHEM_HEAVY_ATOM_COUNT>  (47) 
22

>  <PUBCHEM_ISOTOPIC_ATOM_COUNT>  (47) 
0

>  <PUBCHEM_IUPAC_CAS_NAME>  (47) 
5-(4-fluorophenyl)-N-[(4-fluorophenyl)methyl]-1-methyl-2-imidazolamine

>  <PUBCHEM_IUPAC_INCHI>  (47) 
InChI=1S/C17H15F2N3/c1-22-16(13-4-8-15(19)9-5-13)11-21-17(22)20-10-12-2-6-14(18)7-3-12/h2-9,11H,10H2,1H3,(H,20,21)

>  <PUBCHEM_IUPAC_INCHIKEY>  (47) 
BPOLNIQRAQRPDW-UHFFFAOYSA-N

>  <PUBCHEM_IUPAC_NAME>  (47) 
5-(4-fluorophenyl)-N-[(4-fluorophenyl)methyl]-1-methylimidazol-2-amine

>  <PUBCHEM_IUPAC_OPENEYE_NAME>  (47) 
5-(4-fluorophenyl)-N-[(4-fluorophenyl)methyl]-1-methyl-imidazol-2-amine

>  <PUBCHEM_IUPAC_SYSTEMATIC_NAME>  (47) 
5-(4-fluorophenyl)-N-[(4-fluorophenyl)methyl]-1-methyl-imidazol-2-amine

>  <PUBCHEM_IUPAC_TRADITIONAL_NAME>  (47) 
(4-fluorobenzyl)-[5-(4-fluorophenyl)-1-methyl-imidazol-2-yl]amine

>  <PUBCHEM_MOLECULAR_FORMULA>  (47) 
C17H15F2N3

>  <PUBCHEM_MOLECULAR_WEIGHT>  (47) 
299.317906

>  <PUBCHEM_MONOISOTOPIC_WEIGHT>  (47) 
299.123404

>  <PUBCHEM_OPENEYE_CAN_SMILES>  (47) 
CN1C(=CN=C1NCC2=CC=C(C=C2)F)C3=CC=C(C=C3)F

>  <PUBCHEM_OPENEYE_ISO_SMILES>  (47) 
CN1C(=CN=C1NCC2=CC=C(C=C2)F)C3=CC=C(C=C3)F

>  <PUBCHEM_TOTAL_CHARGE>  (47) 
0

>  <PUBCHEM_XLOGP3_AA>  (47) 
3.7

$$$$
Largest isolated from Written by BCL::WriteToMDL,1320969
     RDKit          2D

 38 40  0 38  0  0  0  0  0  0999 V2000
   -0.6464    0.1184    0.0000 S   0  0  0  0  0  0  0  0  0  0  0  0
   -8.0786   -0.8879    0.0000 F   0  0  0  0  0  0  0  0  0  0  0  0
   -6.3909   -2.1731    0.0000 F   0  0  0  0  0  0  0  0  0  0  0  0
   -6.7934    0.7998    0.0000 F   0  0  0  0  0  0  0  0  0  0  0  0
   -0.2978   -2.4562    0.0000 O   0  0  0  0  0  0  0  0  0  0  0  0
   -2.3532   -4.0454    0.0000 O   0  0  0  0  0  0  0  0  0  0  0  0
    1.3798    1.8619    0.0000 N   0  0  0  0  0  0  0  0  0  0  0  0
   -0.8659    2.7824    0.0000 N   0  0  0  0  0  0  0  0  0  0  0  0
   -1.7842   -2.6574    0.0000 N   0  0  0  0  0  0  0  0  0  0  0  0
    2.5240    0.8919    0.0000 C   0  0  0  0  0  0  0  0  0  0  0  0
    3.6682   -0.0781    0.0000 C   0  0  0  0  0  0  0  0  0  0  0  0
   -0.0775    1.5063    0.0000 C   0  0  0  0  0  0  0  0  0  0  0  0
   -2.1328   -0.0829    0.0000 C   0  0  0  0  0  0  0  0  0  0  0  0
    1.4920    3.3577    0.0000 C   0  0  0  0  0  0  0  0  0  0  0  0
   -2.7018   -1.4708    0.0000 C   0  0  0  0  0  0  0  0  0  0  0  0
   -5.1057   -0.4854    0.0000 C   0  0  0  0  0  0  0  0  0  0  0  0
    5.0803    0.4278    0.0000 C   0  0  0  0  0  0  0  0  0  0  0  0
    3.4002   -1.5540    0.0000 C   0  0  0  0  0  0  0  0  0  0  0  0
   -4.1882   -1.6720    0.0000 C   0  0  0  0  0  0  0  0  0  0  0  0
   -3.0503    1.1038    0.0000 C   0  0  0  0  0  0  0  0  0  0  0  0
   -4.5368    0.9026    0.0000 C   0  0  0  0  0  0  0  0  0  0  0  0
    0.1041    3.9266    0.0000 C   0  0  0  0  0  0  0  0  0  0  0  0
    6.2245   -0.5421    0.0000 C   0  0  0  0  0  0  0  0  0  0  0  0
    4.5444   -2.5239    0.0000 C   0  0  0  0  0  0  0  0  0  0  0  0
   -6.5921   -0.6866    0.0000 C   0  0  0  0  0  0  0  0  0  0  0  0
    5.9565   -2.0180    0.0000 C   0  0  0  0  0  0  0  0  0  0  0  0
    1.5540   -0.2523    0.0000 H   0  0  0  0  0  0  0  0  0  0  0  0
    3.4939    2.0361    0.0000 H   0  0  0  0  0  0  0  0  0  0  0  0
    2.7680    4.1461    0.0000 H   0  0  0  0  0  0  0  0  0  0  0  0
   -4.7571   -3.0600    0.0000 H   0  0  0  0  0  0  0  0  0  0  0  0
   -2.4814    2.4917    0.0000 H   0  0  0  0  0  0  0  0  0  0  0  0
    5.3482    1.9037    0.0000 H   0  0  0  0  0  0  0  0  0  0  0  0
    1.9881   -2.0599    0.0000 H   0  0  0  0  0  0  0  0  0  0  0  0
   -5.4543    2.0892    0.0000 H   0  0  0  0  0  0  0  0  0  0  0  0
   -0.2515    5.3838    0.0000 H   0  0  0  0  0  0  0  0  0  0  0  0
    7.6366   -0.0362    0.0000 H   0  0  0  0  0  0  0  0  0  0  0  0
    4.2765   -3.9998    0.0000 H   0  0  0  0  0  0  0  0  0  0  0  0
    7.1007   -2.9880    0.0000 H   0  0  0  0  0  0  0  0  0  0  0  0
  1 12  1  0
  1 13  1  0
  2 25  1  0
  3 25  1  0
  4 25  1  0
  5  9  1  0
  6  9  2  0
  7 10  1  0
  7 12  1  0
  7 14  1  0
  8 12  2  0
  8 22  1  0
  9 15  1  0
 10 11  1  0
 10 27  1  0
 10 28  1  0
 11 17  2  0
 11 18  1  0
 13 15  2  0
 13 20  1  0
 14 22  2  0
 14 29  1  0
 15 19  1  0
 16 19  2  0
 16 21  1  0
 16 25  1  0
 17 23  1  0
 17 32  1  0
 18 24  2  0
 18 33  1  0
 19 30  1  0
 20 21  2  0
 20 31  1  0
 21 34  1  0
 22 35  1  0
 23 26  2  0
 23 36  1  0
 24 26  1  0
 24 37  1  0
 26 38  1  0
M  CHG  2   5  -1   9   1
V    5 [#8&-&h0]
V    9 [#7&+&h0]
M  STY  8   1 DAT   2 DAT   3 DAT   4 DAT   5 DAT   6 DAT   7 DAT   8 DAT
M  STY  8   9 DAT  10 DAT  11 DAT  12 DAT  13 DAT  14 DAT  15 DAT  16 DAT
M  STY  8  17 DAT  18 DAT  19 DAT  20 DAT  21 DAT  22 DAT  23 DAT  24 DAT
M  STY  8  25 DAT  26 DAT  27 DAT  28 DAT  29 DAT  30 DAT  31 DAT  32 DAT
M  STY  6  33 DAT  34 DAT  35 DAT  36 DAT  37 DAT  38 DAT
M  SAL   1  1   1
M  SED   1 [#16&h0]
M  SAL   2  1   2
M  SED   2 [#9&h0]
M  SAL   3  1   3
M  SED   3 [#9&h0]
M  SAL   4  1   4
M  SED   4 [#9&h0]
M  SAL   5  1   5
M  SED   5 [#8&-&h0]
M  SAL   6  1   6
M  SED   6 [#8&h0]
M  SAL   7  1   7
M  SED   7 [#7&h0]
M  SAL   8  1   8
M  SED   8 [#7&h0]
M  SAL   9  1   9
M  SED   9 [#7&+&h0]
M  SAL  10  1  10
M  SED  10 [#6&h0]
M  SAL  11  1  11
M  SED  11 [#6&h0]
M  SAL  12  1  12
M  SED  12 [#6&h0]
M  SAL  13  1  13
M  SED  13 [#6&h0]
M  SAL  14  1  14
M  SED  14 [#6&h0]
M  SAL  15  1  15
M  SED  15 [#6&h0]
M  SAL  16  1  16
M  SED  16 [#6&h0]
M  SAL  17  1  17
M  SED  17 [#6&h0]
M  SAL  18  1  18
M  SED  18 [#6&h0]
M  SAL  19  1  19
M  SED  19 [#6&h0]
M  SAL  20  1  20
M  SED  20 [#6&h0]
M  SAL  21  1  21
M  SED  21 [#6&h0]
M  SAL  22  1  22
M  SED  22 [#6&h0]
M  SAL  23  1  23
M  SED  23 [#6&h0]
M  SAL  24  1  24
M  SED  24 [#6&h0]
M  SAL  25  1  25
M  SED  25 [#6&h0]
M  SAL  26  1  26
M  SED  26 [#6&h0]
M  SAL  27  1  27
M  SED  27 [#1&h0]
M  SAL  28  1  28
M  SED  28 [#1&h0]
M  SAL  29  1  29
M  SED  29 [#1&h0]
M  SAL  30  1  30
M  SED  30 [#1&h0]
M  SAL  31  1  31
M  SED  31 [#1&h0]
M  SAL  32  1  32
M  SED  32 [#1&h0]
M  SAL  33  1  33
M  SED  33 [#1&h0]
M  SAL  34  1  34
M  SED  34 [#1&h0]
M  SAL  35  1  35
M  SED  35 [#1&h0]
M  SAL  36  1  36
M  SED  36 [#1&h0]
M  SAL  37  1  37
M  SED  37 [#1&h0]
M  SAL  38  1  38
M  SED  38 [#1&h0]
M  END
>  <Activity>  (48) 
0.01

>  <Mapped(file=2032.csv.activities,property=Cached(PUBCHEM_COMPOUND_CID))>  (48) 
100

>  <MatchIndices>  (48) 
200 

>  <PUBCHEM_ATOM_DEF_STEREO_COUNT>  (48) 
0

>  <PUBCHEM_ATOM_UDEF_STEREO_COUNT>  (48) 
0

>  <PUBCHEM_BONDANNOTATIONS>  (48) 
11  17  8
11  18  8
13  15  8
13  20  8
14  22  8
15  19  8
16  19  8
16  21  8
17  23  8
18  24  8
20  21  8
23  26  8
24  26  8
7  12  8
7  14  8
8  12  8
8  22  8

>  <PUBCHEM_BOND_DEF_STEREO_COUNT>  (48) 
0

>  <PUBCHEM_BOND_UDEF_STEREO_COUNT>  (48) 
0

>  <PUBCHEM_CACTVS_COMPLEXITY>  (48) 
483

>  <PUBCHEM_CACTVS_HBOND_ACCEPTOR>  (48) 
6

>  <PUBCHEM_CACTVS_HBOND_DONOR>  (48) 
0

>  <PUBCHEM_CACTVS_ROTATABLE_BOND>  (48) 
4

>  <PUBCHEM_CACTVS_SUBSKEYS>  (48) 
AAADccB7MYBAAAAAAAAAAAAAAAAAAWAAAAAwYAAAAAAAAAAB0AAAHQQEAAAADAjBWhQ90ZccUAihAjRnZwCC0C1xGrApyBwYdIqIaCKgmZGUIAhogAKIyCcQgAAOEAAAQAAAAQAgAACAAAACAAAAAAAAAA==

>  <PUBCHEM_CACTVS_TAUTO_COUNT>  (48) 
1

>  <PUBCHEM_CACTVS_TPSA>  (48) 
88.9

>  <PUBCHEM_COMPONENT_COUNT>  (48) 
1

>  <PUBCHEM_COMPOUND_CANONICALIZED>  (48) 
1

>  <PUBCHEM_COMPOUND_CID>  (48) 
1320969

>  <PUBCHEM_COORDINATE_TYPE>  (48) 
1
5
255

>  <PUBCHEM_EXACT_MASS>  (48) 
379.060232

>  <PUBCHEM_HEAVY_ATOM_COUNT>  (48) 
26

>  <PUBCHEM_ISOTOPIC_ATOM_COUNT>  (48) 
0

>  <PUBCHEM_IUPAC_CAS_NAME>  (48) 
2-[[2-nitro-4-(trifluoromethyl)phenyl]thio]-1-(phenylmethyl)imidazole

>  <PUBCHEM_IUPAC_INCHI>  (48) 
InChI=1S/C17H12F3N3O2S/c18-17(19,20)13-6-7-15(14(10-13)23(24)25)26-16-21-8-9-22(16)11-12-4-2-1-3-5-12/h1-10H,11H2

>  <PUBCHEM_IUPAC_INCHIKEY>  (48) 
XCLLUDWONYYKIY-UHFFFAOYSA-N

>  <PUBCHEM_IUPAC_NAME>  (48) 
1-benzyl-2-[2-nitro-4-(trifluoromethyl)phenyl]sulfanylimidazole

>  <PUBCHEM_IUPAC_OPENEYE_NAME>  (48) 
1-benzyl-2-[2-nitro-4-(trifluoromethyl)phenyl]sulfanyl-imidazole

>  <PUBCHEM_IUPAC_SYSTEMATIC_NAME>  (48) 
2-[2-nitro-4-(trifluoromethyl)phenyl]sulfanyl-1-(phenylmethyl)imidazole

>  <PUBCHEM_IUPAC_TRADITIONAL_NAME>  (48) 
1-benzyl-2-[[2-nitro-4-(trifluoromethyl)phenyl]thio]imidazole

>  <PUBCHEM_MOLECULAR_FORMULA>  (48) 
C17H12F3N3O2S

>  <PUBCHEM_MOLECULAR_WEIGHT>  (48) 
379.35629

>  <PUBCHEM_MONOISOTOPIC_WEIGHT>  (48) 
379.060232

>  <PUBCHEM_OPENEYE_CAN_SMILES>  (48) 
C1=CC=C(C=C1)CN2C=CN=C2SC3=C(C=C(C=C3)C(F)(F)F)[N+](=O)[O-]

>  <PUBCHEM_OPENEYE_ISO_SMILES>  (48) 
C1=CC=C(C=C1)CN2C=CN=C2SC3=C(C=C(C=C3)C(F)(F)F)[N+](=O)[O-]

>  <PUBCHEM_TOTAL_CHARGE>  (48) 
0

>  <PUBCHEM_XLOGP3_AA>  (48) 
4.7

$$$$
Largest isolated from Written by BCL::WriteToMDL,6471104
     RDKit          2D

 46 48  0 46  0  0  0  0  0  0999 V2000
   -8.2983    2.4578    0.0000 F   0  0  0  0  0  0  0  0  0  0  0  0
   -3.3142   -3.5346    0.0000 O   0  0  0  0  0  0  0  0  0  0  0  0
    1.8158   -0.6023    0.0000 N   0  0  0  0  0  0  0  0  0  0  0  0
   -2.4150   -1.0970    0.0000 N   0  0  0  0  0  0  0  0  0  0  0  0
   -4.9756   -1.5371    0.0000 N   0  0  0  0  0  0  0  0  0  0  0  0
   -1.0077   -1.6162    0.0000 C   0  0  0  0  0  0  0  0  0  0  0  0
    0.1371   -2.5853    0.0000 C   0  0  0  0  0  0  0  0  0  0  0  0
   -0.7409   -0.1401    0.0000 C   0  0  0  0  0  0  0  0  0  0  0  0
    0.6709    0.3668    0.0000 C   0  0  0  0  0  0  0  0  0  0  0  0
    1.5489   -2.0784    0.0000 C   0  0  0  0  0  0  0  0  0  0  0  0
    3.2275   -0.0954    0.0000 C   0  0  0  0  0  0  0  0  0  0  0  0
    4.6393    0.4115    0.0000 C   0  0  0  0  0  0  0  0  0  0  0  0
   -3.5683   -2.0562    0.0000 C   0  0  0  0  0  0  0  0  0  0  0  0
    5.7841   -0.5576    0.0000 C   0  0  0  0  0  0  0  0  0  0  0  0
    4.9061    1.8876    0.0000 C   0  0  0  0  0  0  0  0  0  0  0  0
    7.1959   -0.0507    0.0000 C   0  0  0  0  0  0  0  0  0  0  0  0
    6.3179    2.3945    0.0000 C   0  0  0  0  0  0  0  0  0  0  0  0
    7.4628    1.4254    0.0000 C   0  0  0  0  0  0  0  0  0  0  0  0
   -5.2296   -0.0588    0.0000 C   0  0  0  0  0  0  0  0  0  0  0  0
   -6.6369    0.4604    0.0000 C   0  0  0  0  0  0  0  0  0  0  0  0
   -4.0764    0.9004    0.0000 C   0  0  0  0  0  0  0  0  0  0  0  0
   -6.8910    1.9387    0.0000 C   0  0  0  0  0  0  0  0  0  0  0  0
   -4.3305    2.3788    0.0000 C   0  0  0  0  0  0  0  0  0  0  0  0
   -5.7378    2.8979    0.0000 C   0  0  0  0  0  0  0  0  0  0  0  0
   -1.7633   -2.9119    0.0000 H   0  0  0  0  0  0  0  0  0  0  0  0
    0.8815   -3.8876    0.0000 H   0  0  0  0  0  0  0  0  0  0  0  0
   -1.0161   -3.5445    0.0000 H   0  0  0  0  0  0  0  0  0  0  0  0
   -1.6266   -0.1363    0.0000 H   0  0  0  0  0  0  0  0  0  0  0  0
   -0.9949    1.3382    0.0000 H   0  0  0  0  0  0  0  0  0  0  0  0
    3.0369   -2.2677    0.0000 H   0  0  0  0  0  0  0  0  0  0  0  0
    1.8030   -3.5567    0.0000 H   0  0  0  0  0  0  0  0  0  0  0  0
   -0.0735    1.6691    0.0000 H   0  0  0  0  0  0  0  0  0  0  0  0
    1.6986    1.4594    0.0000 H   0  0  0  0  0  0  0  0  0  0  0  0
    3.9027   -1.4348    0.0000 H   0  0  0  0  0  0  0  0  0  0  0  0
    2.8965    1.3676    0.0000 H   0  0  0  0  0  0  0  0  0  0  0  0
   -2.5501   -0.3114    0.0000 H   0  0  0  0  0  0  0  0  0  0  0  0
    5.5173   -2.0337    0.0000 H   0  0  0  0  0  0  0  0  0  0  0  0
    3.7612    2.8567    0.0000 H   0  0  0  0  0  0  0  0  0  0  0  0
   -6.1288   -2.4963    0.0000 H   0  0  0  0  0  0  0  0  0  0  0  0
    8.3408   -1.0199    0.0000 H   0  0  0  0  0  0  0  0  0  0  0  0
    6.5847    3.8706    0.0000 H   0  0  0  0  0  0  0  0  0  0  0  0
    8.8745    1.9323    0.0000 H   0  0  0  0  0  0  0  0  0  0  0  0
   -7.7902   -0.4988    0.0000 H   0  0  0  0  0  0  0  0  0  0  0  0
   -2.6691    0.3813    0.0000 H   0  0  0  0  0  0  0  0  0  0  0  0
   -3.1773    3.3379    0.0000 H   0  0  0  0  0  0  0  0  0  0  0  0
   -5.9919    4.3762    0.0000 H   0  0  0  0  0  0  0  0  0  0  0  0
  1 22  1  0
  2 13  2  0
  3  9  1  0
  3 10  1  0
  3 11  1  0
  4  6  1  0
  4 13  1  0
  4 36  1  0
  5 13  1  0
  5 19  1  0
  5 39  1  0
  6  7  1  0
  6  8  1  0
  6 25  1  0
  7 10  1  0
  7 26  1  0
  7 27  1  0
  8  9  1  0
  8 28  1  0
  8 29  1  0
  9 32  1  0
  9 33  1  0
 10 30  1  0
 10 31  1  0
 11 12  1  0
 11 34  1  0
 11 35  1  0
 12 14  2  0
 12 15  1  0
 14 16  1  0
 14 37  1  0
 15 17  2  0
 15 38  1  0
 16 18  2  0
 16 40  1  0
 17 18  1  0
 17 41  1  0
 18 42  1  0
 19 20  2  0
 19 21  1  0
 20 22  1  0
 20 43  1  0
 21 23  2  0
 21 44  1  0
 22 24  2  0
 23 24  1  0
 23 45  1  0
 24 46  1  0
M  STY  8   1 DAT   2 DAT   3 DAT   4 DAT   5 DAT   6 DAT   7 DAT   8 DAT
M  STY  8   9 DAT  10 DAT  11 DAT  12 DAT  13 DAT  14 DAT  15 DAT  16 DAT
M  STY  8  17 DAT  18 DAT  19 DAT  20 DAT  21 DAT  22 DAT  23 DAT  24 DAT
M  STY  8  25 DAT  26 DAT  27 DAT  28 DAT  29 DAT  30 DAT  31 DAT  32 DAT
M  STY  8  33 DAT  34 DAT  35 DAT  36 DAT  37 DAT  38 DAT  39 DAT  40 DAT
M  STY  6  41 DAT  42 DAT  43 DAT  44 DAT  45 DAT  46 DAT
M  SAL   1  1   1
M  SED   1 [#9&h0]
M  SAL   2  1   2
M  SED   2 [#8&h0]
M  SAL   3  1   3
M  SED   3 [#7&h0]
M  SAL   4  1   4
M  SED   4 [#7&h0]
M  SAL   5  1   5
M  SED   5 [#7&h0]
M  SAL   6  1   6
M  SED   6 [#6&h0]
M  SAL   7  1   7
M  SED   7 [#6&h0]
M  SAL   8  1   8
M  SED   8 [#6&h0]
M  SAL   9  1   9
M  SED   9 [#6&h0]
M  SAL  10  1  10
M  SED  10 [#6&h0]
M  SAL  11  1  11
M  SED  11 [#6&h0]
M  SAL  12  1  12
M  SED  12 [#6&h0]
M  SAL  13  1  13
M  SED  13 [#6&h0]
M  SAL  14  1  14
M  SED  14 [#6&h0]
M  SAL  15  1  15
M  SED  15 [#6&h0]
M  SAL  16  1  16
M  SED  16 [#6&h0]
M  SAL  17  1  17
M  SED  17 [#6&h0]
M  SAL  18  1  18
M  SED  18 [#6&h0]
M  SAL  19  1  19
M  SED  19 [#6&h0]
M  SAL  20  1  20
M  SED  20 [#6&h0]
M  SAL  21  1  21
M  SED  21 [#6&h0]
M  SAL  22  1  22
M  SED  22 [#6&h0]
M  SAL  23  1  23
M  SED  23 [#6&h0]
M  SAL  24  1  24
M  SED  24 [#6&h0]
M  SAL  25  1  25
M  SED  25 [#1&h0]
M  SAL  26  1  26
M  SED  26 [#1&h0]
M  SAL  27  1  27
M  SED  27 [#1&h0]
M  SAL  28  1  28
M  SED  28 [#1&h0]
M  SAL  29  1  29
M  SED  29 [#1&h0]
M  SAL  30  1  30
M  SED  30 [#1&h0]
M  SAL  31  1  31
M  SED  31 [#1&h0]
M  SAL  32  1  32
M  SED  32 [#1&h0]
M  SAL  33  1  33
M  SED  33 [#1&h0]
M  SAL  34  1  34
M  SED  34 [#1&h0]
M  SAL  35  1  35
M  SED  35 [#1&h0]
M  SAL  36  1  36
M  SED  36 [#1&h0]
M  SAL  37  1  37
M  SED  37 [#1&h0]
M  SAL  38  1  38
M  SED  38 [#1&h0]
M  SAL  39  1  39
M  SED  39 [#1&h0]
M  SAL  40  1  40
M  SED  40 [#1&h0]
M  SAL  41  1  41
M  SED  41 [#1&h0]
M  SAL  42  1  42
M  SED  42 [#1&h0]
M  SAL  43  1  43
M  SED  43 [#1&h0]
M  SAL  44  1  44
M  SED  44 [#1&h0]
M  SAL  45  1  45
M  SED  45 [#1&h0]
M  SAL  46  1  46
M  SED  46 [#1&h0]
M  END
>  <Activity>  (49) 
0.01

>  <Mapped(file=2032.csv.activities,property=Cached(PUBCHEM_COMPOUND_CID))>  (49) 
100

>  <MatchIndices>  (49) 
141 

>  <PUBCHEM_ATOM_DEF_STEREO_COUNT>  (49) 
0

>  <PUBCHEM_ATOM_UDEF_STEREO_COUNT>  (49) 
0

>  <PUBCHEM_BONDANNOTATIONS>  (49) 
12  14  8
12  15  8
14  16  8
15  17  8
16  18  8
17  18  8
19  20  8
19  21  8
20  22  8
21  23  8
22  24  8
23  24  8

>  <PUBCHEM_BOND_DEF_STEREO_COUNT>  (49) 
0

>  <PUBCHEM_BOND_UDEF_STEREO_COUNT>  (49) 
0

>  <PUBCHEM_CACTVS_COMPLEXITY>  (49) 
392

>  <PUBCHEM_CACTVS_HBOND_ACCEPTOR>  (49) 
3

>  <PUBCHEM_CACTVS_HBOND_DONOR>  (49) 
2

>  <PUBCHEM_CACTVS_ROTATABLE_BOND>  (49) 
4

>  <PUBCHEM_CACTVS_SUBSKEYS>  (49) 
AAADceB7IQAAAAAAAAAAAAAAAAAAAAAAAAA8YIAAAAAAAAABQAAAHwAQAAAADCjBGAwxwIPAAACIAiRCUACCAAAhAgAIiIAIZIiIICLA0ZGEIAholgLIyCcQgAAOAAAAAAAAAAAAAAAAAAAAAAAAAAAAAA==

>  <PUBCHEM_CACTVS_TAUTO_COUNT>  (49) 
3

>  <PUBCHEM_CACTVS_TPSA>  (49) 
44.4

>  <PUBCHEM_COMPONENT_COUNT>  (49) 
1

>  <PUBCHEM_COMPOUND_CANONICALIZED>  (49) 
1

>  <PUBCHEM_COMPOUND_CID>  (49) 
6471104

>  <PUBCHEM_COORDINATE_TYPE>  (49) 
1
5
255

>  <PUBCHEM_EXACT_MASS>  (49) 
327.174691

>  <PUBCHEM_HEAVY_ATOM_COUNT>  (49) 
24

>  <PUBCHEM_ISOTOPIC_ATOM_COUNT>  (49) 
0

>  <PUBCHEM_IUPAC_CAS_NAME>  (49) 
1-(3-fluorophenyl)-3-[1-(phenylmethyl)-4-piperidinyl]urea

>  <PUBCHEM_IUPAC_INCHI>  (49) 
InChI=1S/C19H22FN3O/c20-16-7-4-8-18(13-16)22-19(24)21-17-9-11-23(12-10-17)14-15-5-2-1-3-6-15/h1-8,13,17H,9-12,14H2,(H2,21,22,24)

>  <PUBCHEM_IUPAC_INCHIKEY>  (49) 
KZHBSQMIYHCPDG-UHFFFAOYSA-N

>  <PUBCHEM_IUPAC_NAME>  (49) 
1-(1-benzylpiperidin-4-yl)-3-(3-fluorophenyl)urea

>  <PUBCHEM_IUPAC_OPENEYE_NAME>  (49) 
1-(1-benzyl-4-piperidyl)-3-(3-fluorophenyl)urea

>  <PUBCHEM_IUPAC_SYSTEMATIC_NAME>  (49) 
1-(3-fluorophenyl)-3-[1-(phenylmethyl)piperidin-4-yl]urea

>  <PUBCHEM_IUPAC_TRADITIONAL_NAME>  (49) 
1-(1-benzyl-4-piperidyl)-3-(3-fluorophenyl)urea

>  <PUBCHEM_MOLECULAR_FORMULA>  (49) 
C19H22FN3O

>  <PUBCHEM_MOLECULAR_WEIGHT>  (49) 
327.395883

>  <PUBCHEM_MONOISOTOPIC_WEIGHT>  (49) 
327.174691

>  <PUBCHEM_OPENEYE_CAN_SMILES>  (49) 
C1CN(CCC1NC(=O)NC2=CC(=CC=C2)F)CC3=CC=CC=C3

>  <PUBCHEM_OPENEYE_ISO_SMILES>  (49) 
C1CN(CCC1NC(=O)NC2=CC(=CC=C2)F)CC3=CC=CC=C3

>  <PUBCHEM_TOTAL_CHARGE>  (49) 
0

>  <PUBCHEM_XLOGP3_AA>  (49) 
3.1

$$$$
Largest isolated from Written by BCL::WriteToMDL,792502
     RDKit          2D

 45 47  0 45  0  0  0  0  0  0999 V2000
   -0.8667   -0.0000    0.0000 N   0  0  0  0  0  0  0  0  0  0  0  0
    2.1333   -0.0000    0.0000 N   0  0  0  0  0  0  0  0  0  0  0  0
   -0.1167   -1.2990    0.0000 C   0  0  0  0  0  0  0  0  0  0  0  0
   -0.1167    1.2990    0.0000 C   0  0  0  0  0  0  0  0  0  0  0  0
    1.3833   -1.2990    0.0000 C   0  0  0  0  0  0  0  0  0  0  0  0
    1.3833    1.2990    0.0000 C   0  0  0  0  0  0  0  0  0  0  0  0
   -2.3667   -0.0000    0.0000 C   0  0  0  0  0  0  0  0  0  0  0  0
    3.6333    0.0000    0.0000 C   0  0  0  0  0  0  0  0  0  0  0  0
   -3.8667   -0.0000    0.0000 C   0  0  0  0  0  0  0  0  0  0  0  0
    5.1333    0.0000    0.0000 C   0  0  0  0  0  0  0  0  0  0  0  0
   -4.6167   -1.2990    0.0000 C   0  0  0  0  0  0  0  0  0  0  0  0
   -4.6167    1.2990    0.0000 C   0  0  0  0  0  0  0  0  0  0  0  0
    5.8833   -1.2990    0.0000 C   0  0  0  0  0  0  0  0  0  0  0  0
    5.8833    1.2990    0.0000 C   0  0  0  0  0  0  0  0  0  0  0  0
   -6.1167   -1.2990    0.0000 C   0  0  0  0  0  0  0  0  0  0  0  0
   -6.1167    1.2990    0.0000 C   0  0  0  0  0  0  0  0  0  0  0  0
   -6.8667    0.0000    0.0000 C   0  0  0  0  0  0  0  0  0  0  0  0
    7.3833   -1.2990    0.0000 C   0  0  0  0  0  0  0  0  0  0  0  0
    7.3833    1.2990    0.0000 C   0  0  0  0  0  0  0  0  0  0  0  0
    8.1333    0.0000    0.0000 C   0  0  0  0  0  0  0  0  0  0  0  0
   -8.3667    0.0000    0.0000 C   0  0  0  0  0  0  0  0  0  0  0  0
    0.1438   -2.7762    0.0000 H   0  0  0  0  0  0  0  0  0  0  0  0
   -1.4532   -1.9801    0.0000 H   0  0  0  0  0  0  0  0  0  0  0  0
   -1.4532    1.9801    0.0000 H   0  0  0  0  0  0  0  0  0  0  0  0
    0.1438    2.7762    0.0000 H   0  0  0  0  0  0  0  0  0  0  0  0
    1.1229    2.7762    0.0000 H   0  0  0  0  0  0  0  0  0  0  0  0
    2.7198    1.9801    0.0000 H   0  0  0  0  0  0  0  0  0  0  0  0
    2.7198   -1.9801    0.0000 H   0  0  0  0  0  0  0  0  0  0  0  0
    1.1229   -2.7762    0.0000 H   0  0  0  0  0  0  0  0  0  0  0  0
   -2.5495   -1.4888    0.0000 H   0  0  0  0  0  0  0  0  0  0  0  0
   -2.5495    1.4888    0.0000 H   0  0  0  0  0  0  0  0  0  0  0  0
    3.8162   -1.4888    0.0000 H   0  0  0  0  0  0  0  0  0  0  0  0
    3.8162    1.4888    0.0000 H   0  0  0  0  0  0  0  0  0  0  0  0
   -3.8667   -2.5981    0.0000 H   0  0  0  0  0  0  0  0  0  0  0  0
   -3.8667    2.5981    0.0000 H   0  0  0  0  0  0  0  0  0  0  0  0
    5.1333   -2.5981    0.0000 H   0  0  0  0  0  0  0  0  0  0  0  0
    5.1333    2.5981    0.0000 H   0  0  0  0  0  0  0  0  0  0  0  0
   -6.8667   -2.5981    0.0000 H   0  0  0  0  0  0  0  0  0  0  0  0
   -6.8667    2.5981    0.0000 H   0  0  0  0  0  0  0  0  0  0  0  0
    8.1333   -2.5981    0.0000 H   0  0  0  0  0  0  0  0  0  0  0  0
    8.1333    2.5981    0.0000 H   0  0  0  0  0  0  0  0  0  0  0  0
    9.6333    0.0000    0.0000 H   0  0  0  0  0  0  0  0  0  0  0  0
   -8.3667   -1.5000    0.0000 H   0  0  0  0  0  0  0  0  0  0  0  0
   -8.3667    1.5000    0.0000 H   0  0  0  0  0  0  0  0  0  0  0  0
   -9.8667    0.0000    0.0000 H   0  0  0  0  0  0  0  0  0  0  0  0
  1  3  1  0
  1  4  1  0
  1  7  1  0
  2  5  1  0
  2  6  1  0
  2  8  1  0
  3  5  1  0
  3 22  1  0
  3 23  1  0
  4  6  1  0
  4 24  1  0
  4 25  1  0
  5 28  1  0
  5 29  1  0
  6 26  1  0
  6 27  1  0
  7  9  1  0
  7 30  1  0
  7 31  1  0
  8 10  1  0
  8 32  1  0
  8 33  1  0
  9 11  2  0
  9 12  1  0
 10 13  2  0
 10 14  1  0
 11 15  1  0
 11 34  1  0
 12 16  2  0
 12 35  1  0
 13 18  1  0
 13 36  1  0
 14 19  2  0
 14 37  1  0
 15 17  2  0
 15 38  1  0
 16 17  1  0
 16 39  1  0
 17 21  1  0
 18 20  2  0
 18 40  1  0
 19 20  1  0
 19 41  1  0
 20 42  1  0
 21 43  1  0
 21 44  1  0
 21 45  1  0
M  STY  8   1 DAT   2 DAT   3 DAT   4 DAT   5 DAT   6 DAT   7 DAT   8 DAT
M  STY  8   9 DAT  10 DAT  11 DAT  12 DAT  13 DAT  14 DAT  15 DAT  16 DAT
M  STY  8  17 DAT  18 DAT  19 DAT  20 DAT  21 DAT  22 DAT  23 DAT  24 DAT
M  STY  8  25 DAT  26 DAT  27 DAT  28 DAT  29 DAT  30 DAT  31 DAT  32 DAT
M  STY  8  33 DAT  34 DAT  35 DAT  36 DAT  37 DAT  38 DAT  39 DAT  40 DAT
M  STY  5  41 DAT  42 DAT  43 DAT  44 DAT  45 DAT
M  SAL   1  1   1
M  SED   1 [#7&h0]
M  SAL   2  1   2
M  SED   2 [#7&h0]
M  SAL   3  1   3
M  SED   3 [#6&h0]
M  SAL   4  1   4
M  SED   4 [#6&h0]
M  SAL   5  1   5
M  SED   5 [#6&h0]
M  SAL   6  1   6
M  SED   6 [#6&h0]
M  SAL   7  1   7
M  SED   7 [#6&h0]
M  SAL   8  1   8
M  SED   8 [#6&h0]
M  SAL   9  1   9
M  SED   9 [#6&h0]
M  SAL  10  1  10
M  SED  10 [#6&h0]
M  SAL  11  1  11
M  SED  11 [#6&h0]
M  SAL  12  1  12
M  SED  12 [#6&h0]
M  SAL  13  1  13
M  SED  13 [#6&h0]
M  SAL  14  1  14
M  SED  14 [#6&h0]
M  SAL  15  1  15
M  SED  15 [#6&h0]
M  SAL  16  1  16
M  SED  16 [#6&h0]
M  SAL  17  1  17
M  SED  17 [#6&h0]
M  SAL  18  1  18
M  SED  18 [#6&h0]
M  SAL  19  1  19
M  SED  19 [#6&h0]
M  SAL  20  1  20
M  SED  20 [#6&h0]
M  SAL  21  1  21
M  SED  21 [#6&h0]
M  SAL  22  1  22
M  SED  22 [#1&h0]
M  SAL  23  1  23
M  SED  23 [#1&h0]
M  SAL  24  1  24
M  SED  24 [#1&h0]
M  SAL  25  1  25
M  SED  25 [#1&h0]
M  SAL  26  1  26
M  SED  26 [#1&h0]
M  SAL  27  1  27
M  SED  27 [#1&h0]
M  SAL  28  1  28
M  SED  28 [#1&h0]
M  SAL  29  1  29
M  SED  29 [#1&h0]
M  SAL  30  1  30
M  SED  30 [#1&h0]
M  SAL  31  1  31
M  SED  31 [#1&h0]
M  SAL  32  1  32
M  SED  32 [#1&h0]
M  SAL  33  1  33
M  SED  33 [#1&h0]
M  SAL  34  1  34
M  SED  34 [#1&h0]
M  SAL  35  1  35
M  SED  35 [#1&h0]
M  SAL  36  1  36
M  SED  36 [#1&h0]
M  SAL  37  1  37
M  SED  37 [#1&h0]
M  SAL  38  1  38
M  SED  38 [#1&h0]
M  SAL  39  1  39
M  SED  39 [#1&h0]
M  SAL  40  1  40
M  SED  40 [#1&h0]
M  SAL  41  1  41
M  SED  41 [#1&h0]
M  SAL  42  1  42
M  SED  42 [#1&h0]
M  SAL  43  1  43
M  SED  43 [#1&h0]
M  SAL  44  1  44
M  SED  44 [#1&h0]
M  SAL  45  1  45
M  SED  45 [#1&h0]
M  END
>  <Activity>  (50) 
0.01

>  <Mapped(file=2032.csv.activities,property=Cached(PUBCHEM_COMPOUND_CID))>  (50) 
100

>  <MatchIndices>  (50) 
19 

>  <PUBCHEM_ATOM_DEF_STEREO_COUNT>  (50) 
0

>  <PUBCHEM_ATOM_UDEF_STEREO_COUNT>  (50) 
0

>  <PUBCHEM_BONDANNOTATIONS>  (50) 
10  13  8
10  14  8
11  15  8
12  16  8
13  18  8
14  19  8
15  17  8
16  17  8
18  20  8
19  20  8
9  11  8
9  12  8

>  <PUBCHEM_BOND_DEF_STEREO_COUNT>  (50) 
0

>  <PUBCHEM_BOND_UDEF_STEREO_COUNT>  (50) 
0

>  <PUBCHEM_CACTVS_COMPLEXITY>  (50) 
282

>  <PUBCHEM_CACTVS_HBOND_ACCEPTOR>  (50) 
2

>  <PUBCHEM_CACTVS_HBOND_DONOR>  (50) 
0

>  <PUBCHEM_CACTVS_ROTATABLE_BOND>  (50) 
4

>  <PUBCHEM_CACTVS_SUBSKEYS>  (50) 
AAADceB7AAAAAAAAAAAAAAAAAAAAAAAAAAA8YIAAAAAAAAABQAAAHAAAAAAADADBGAQyAIMAAACAAiBCAACCAAAgAAAIiAAIBIgIYCKAkRGUIAhggACIiAcQgAAOQAAAAAAAAACAAAAAAAAAAAAAAAAAAA==

>  <PUBCHEM_CACTVS_TAUTO_COUNT>  (50) 
1

>  <PUBCHEM_CACTVS_TPSA>  (50) 
6.5

>  <PUBCHEM_COMPONENT_COUNT>  (50) 
1

>  <PUBCHEM_COMPOUND_CANONICALIZED>  (50) 
1

>  <PUBCHEM_COMPOUND_CID>  (50) 
792502

>  <PUBCHEM_COORDINATE_TYPE>  (50) 
1
5
255

>  <PUBCHEM_EXACT_MASS>  (50) 
280.193949

>  <PUBCHEM_HEAVY_ATOM_COUNT>  (50) 
21

>  <PUBCHEM_ISOTOPIC_ATOM_COUNT>  (50) 
0

>  <PUBCHEM_IUPAC_CAS_NAME>  (50) 
1-[(4-methylphenyl)methyl]-4-(phenylmethyl)piperazine

>  <PUBCHEM_IUPAC_INCHI>  (50) 
InChI=1S/C19H24N2/c1-17-7-9-19(10-8-17)16-21-13-11-20(12-14-21)15-18-5-3-2-4-6-18/h2-10H,11-16H2,1H3

>  <PUBCHEM_IUPAC_INCHIKEY>  (50) 
UZIYLIRBEDSOPG-UHFFFAOYSA-N

>  <PUBCHEM_IUPAC_NAME>  (50) 
1-benzyl-4-[(4-methylphenyl)methyl]piperazine

>  <PUBCHEM_IUPAC_OPENEYE_NAME>  (50) 
1-benzyl-4-(p-tolylmethyl)piperazine

>  <PUBCHEM_IUPAC_SYSTEMATIC_NAME>  (50) 
1-[(4-methylphenyl)methyl]-4-(phenylmethyl)piperazine

>  <PUBCHEM_IUPAC_TRADITIONAL_NAME>  (50) 
1-benzyl-4-(4-methylbenzyl)piperazine

>  <PUBCHEM_MOLECULAR_FORMULA>  (50) 
C19H24N2

>  <PUBCHEM_MOLECULAR_WEIGHT>  (50) 
280.40726

>  <PUBCHEM_MONOISOTOPIC_WEIGHT>  (50) 
280.193949

>  <PUBCHEM_OPENEYE_CAN_SMILES>  (50) 
CC1=CC=C(C=C1)CN2CCN(CC2)CC3=CC=CC=C3

>  <PUBCHEM_OPENEYE_ISO_SMILES>  (50) 
CC1=CC=C(C=C1)CN2CCN(CC2)CC3=CC=CC=C3

>  <PUBCHEM_TOTAL_CHARGE>  (50) 
0

>  <PUBCHEM_XLOGP3_AA>  (50) 
3.4

$$$$
Largest isolated from Written by BCL::WriteToMDL,23723675
     RDKit          2D

 62 64  0 62  0  0  0  0  0  0999 V2000
    8.5348    0.5944    0.0000 O   0  0  0  0  0  0  0  0  0  0  0  0
   -9.2512   -2.5607    0.0000 O   0  0  0  0  0  0  0  0  0  0  0  0
   -1.4462    1.9207    0.0000 N   0  0  0  0  0  0  0  0  0  0  0  0
    2.1712   -0.9071    0.0000 N   0  0  0  0  0  0  0  0  0  0  0  0
    1.1519    1.9144    0.0000 C   0  0  0  0  0  0  0  0  0  0  0  0
   -0.1490    1.1675    0.0000 C   0  0  0  0  0  0  0  0  0  0  0  0
    1.1554    3.4144    0.0000 C   0  0  0  0  0  0  0  0  0  0  0  0
   -0.1418    4.1675    0.0000 C   0  0  0  0  0  0  0  0  0  0  0  0
   -1.4426    3.4206    0.0000 C   0  0  0  0  0  0  0  0  0  0  0  0
    1.6615    0.5037    0.0000 C   0  0  0  0  0  0  0  0  0  0  0  0
   -2.7470    1.1738    0.0000 C   0  0  0  0  0  0  0  0  0  0  0  0
   -4.0479    0.4269    0.0000 C   0  0  0  0  0  0  0  0  0  0  0  0
    3.6478   -1.1711    0.0000 C   0  0  0  0  0  0  0  0  0  0  0  0
    1.2043   -2.0538    0.0000 C   0  0  0  0  0  0  0  0  0  0  0  0
   -5.3487   -0.3200    0.0000 C   0  0  0  0  0  0  0  0  0  0  0  0
    5.1244   -1.4351    0.0000 C   0  0  0  0  0  0  0  0  0  0  0  0
   -6.6459    0.4331    0.0000 C   0  0  0  0  0  0  0  0  0  0  0  0
   -5.3523   -1.8200    0.0000 C   0  0  0  0  0  0  0  0  0  0  0  0
    6.0913   -0.2883    0.0000 C   0  0  0  0  0  0  0  0  0  0  0  0
    5.6340   -2.8458    0.0000 C   0  0  0  0  0  0  0  0  0  0  0  0
   -7.9468   -0.3138    0.0000 C   0  0  0  0  0  0  0  0  0  0  0  0
   -6.6531   -2.5669    0.0000 C   0  0  0  0  0  0  0  0  0  0  0  0
    7.5679   -0.5523    0.0000 C   0  0  0  0  0  0  0  0  0  0  0  0
   -7.9503   -1.8138    0.0000 C   0  0  0  0  0  0  0  0  0  0  0  0
    7.1106   -3.1098    0.0000 C   0  0  0  0  0  0  0  0  0  0  0  0
    8.0775   -1.9631    0.0000 C   0  0  0  0  0  0  0  0  0  0  0  0
   10.0114    0.3304    0.0000 C   0  0  0  0  0  0  0  0  0  0  0  0
  -10.5484   -1.8076    0.0000 C   0  0  0  0  0  0  0  0  0  0  0  0
    2.6297    2.1714    0.0000 H   0  0  0  0  0  0  0  0  0  0  0  0
    0.2836    0.4979    0.0000 H   0  0  0  0  0  0  0  0  0  0  0  0
   -0.9689   -0.0885    0.0000 H   0  0  0  0  0  0  0  0  0  0  0  0
    1.6718    4.8227    0.0000 H   0  0  0  0  0  0  0  0  0  0  0  0
    2.6320    3.1504    0.0000 H   0  0  0  0  0  0  0  0  0  0  0  0
   -1.1032    5.3189    0.0000 H   0  0  0  0  0  0  0  0  0  0  0  0
    0.8251    5.3143    0.0000 H   0  0  0  0  0  0  0  0  0  0  0  0
   -2.9408    3.3458    0.0000 H   0  0  0  0  0  0  0  0  0  0  0  0
   -1.9523    4.8314    0.0000 H   0  0  0  0  0  0  0  0  0  0  0  0
    0.9504    0.1435    0.0000 H   0  0  0  0  0  0  0  0  0  0  0  0
    3.0723    1.0133    0.0000 H   0  0  0  0  0  0  0  0  0  0  0  0
   -3.6469    2.3738    0.0000 H   0  0  0  0  0  0  0  0  0  0  0  0
   -2.1643   -0.2084    0.0000 H   0  0  0  0  0  0  0  0  0  0  0  0
   -3.3010   -0.8740    0.0000 H   0  0  0  0  0  0  0  0  0  0  0  0
   -4.7948    1.7277    0.0000 H   0  0  0  0  0  0  0  0  0  0  0  0
    3.3838   -2.6477    0.0000 H   0  0  0  0  0  0  0  0  0  0  0  0
    3.9118    0.3055    0.0000 H   0  0  0  0  0  0  0  0  0  0  0  0
    2.3510   -3.0208    0.0000 H   0  0  0  0  0  0  0  0  0  0  0  0
    0.0575   -1.0869    0.0000 H   0  0  0  0  0  0  0  0  0  0  0  0
    0.2373   -3.2006    0.0000 H   0  0  0  0  0  0  0  0  0  0  0  0
   -6.6423    1.9331    0.0000 H   0  0  0  0  0  0  0  0  0  0  0  0
   -4.0550   -2.5731    0.0000 H   0  0  0  0  0  0  0  0  0  0  0  0
    5.5816    1.1224    0.0000 H   0  0  0  0  0  0  0  0  0  0  0  0
    4.6671   -3.9926    0.0000 H   0  0  0  0  0  0  0  0  0  0  0  0
   -9.2440    0.4393    0.0000 H   0  0  0  0  0  0  0  0  0  0  0  0
   -6.6567   -4.0669    0.0000 H   0  0  0  0  0  0  0  0  0  0  0  0
    7.6203   -4.5206    0.0000 H   0  0  0  0  0  0  0  0  0  0  0  0
    9.5541   -2.2271    0.0000 H   0  0  0  0  0  0  0  0  0  0  0  0
   10.2754    1.8070    0.0000 H   0  0  0  0  0  0  0  0  0  0  0  0
    9.7474   -1.1461    0.0000 H   0  0  0  0  0  0  0  0  0  0  0  0
   11.4880    0.0664    0.0000 H   0  0  0  0  0  0  0  0  0  0  0  0
  -11.3015   -3.1049    0.0000 H   0  0  0  0  0  0  0  0  0  0  0  0
   -9.7953   -0.5104    0.0000 H   0  0  0  0  0  0  0  0  0  0  0  0
  -11.8457   -1.0545    0.0000 H   0  0  0  0  0  0  0  0  0  0  0  0
  1 23  1  0
  1 27  1  0
  2 24  1  0
  2 28  1  0
  3  6  1  0
  3  9  1  0
  3 11  1  0
  4 10  1  0
  4 13  1  0
  4 14  1  0
  5  6  1  0
  5  7  1  0
  5 10  1  0
  5 29  1  6
  6 30  1  0
  6 31  1  0
  7  8  1  0
  7 32  1  0
  7 33  1  0
  8  9  1  0
  8 34  1  0
  8 35  1  0
  9 36  1  0
  9 37  1  0
 10 38  1  0
 10 39  1  0
 11 12  1  0
 11 40  1  0
 11 41  1  0
 12 15  1  0
 12 42  1  0
 12 43  1  0
 13 16  1  0
 13 44  1  0
 13 45  1  0
 14 46  1  0
 14 47  1  0
 14 48  1  0
 15 17  2  0
 15 18  1  0
 16 19  2  0
 16 20  1  0
 17 21  1  0
 17 49  1  0
 18 22  2  0
 18 50  1  0
 19 23  1  0
 19 51  1  0
 20 25  2  0
 20 52  1  0
 21 24  2  0
 21 53  1  0
 22 24  1  0
 22 54  1  0
 23 26  2  0
 25 26  1  0
 25 55  1  0
 26 56  1  0
 27 57  1  0
 27 58  1  0
 27 59  1  0
 28 60  1  0
 28 61  1  0
 28 62  1  0
M  STY  8   1 DAT   2 DAT   3 DAT   4 DAT   5 DAT   6 DAT   7 DAT   8 DAT
M  STY  8   9 DAT  10 DAT  11 DAT  12 DAT  13 DAT  14 DAT  15 DAT  16 DAT
M  STY  8  17 DAT  18 DAT  19 DAT  20 DAT  21 DAT  22 DAT  23 DAT  24 DAT
M  STY  8  25 DAT  26 DAT  27 DAT  28 DAT  29 DAT  30 DAT  31 DAT  32 DAT
M  STY  8  33 DAT  34 DAT  35 DAT  36 DAT  37 DAT  38 DAT  39 DAT  40 DAT
M  STY  8  41 DAT  42 DAT  43 DAT  44 DAT  45 DAT  46 DAT  47 DAT  48 DAT
M  STY  8  49 DAT  50 DAT  51 DAT  52 DAT  53 DAT  54 DAT  55 DAT  56 DAT
M  STY  6  57 DAT  58 DAT  59 DAT  60 DAT  61 DAT  62 DAT
M  SAL   1  1   1
M  SED   1 [#8&h0]
M  SAL   2  1   2
M  SED   2 [#8&h0]
M  SAL   3  1   3
M  SED   3 [#7&h0]
M  SAL   4  1   4
M  SED   4 [#7&h0]
M  SAL   5  1   5
M  SED   5 [#6&h0]
M  SAL   6  1   6
M  SED   6 [#6&h0]
M  SAL   7  1   7
M  SED   7 [#6&h0]
M  SAL   8  1   8
M  SED   8 [#6&h0]
M  SAL   9  1   9
M  SED   9 [#6&h0]
M  SAL  10  1  10
M  SED  10 [#6&h0]
M  SAL  11  1  11
M  SED  11 [#6&h0]
M  SAL  12  1  12
M  SED  12 [#6&h0]
M  SAL  13  1  13
M  SED  13 [#6&h0]
M  SAL  14  1  14
M  SED  14 [#6&h0]
M  SAL  15  1  15
M  SED  15 [#6&h0]
M  SAL  16  1  16
M  SED  16 [#6&h0]
M  SAL  17  1  17
M  SED  17 [#6&h0]
M  SAL  18  1  18
M  SED  18 [#6&h0]
M  SAL  19  1  19
M  SED  19 [#6&h0]
M  SAL  20  1  20
M  SED  20 [#6&h0]
M  SAL  21  1  21
M  SED  21 [#6&h0]
M  SAL  22  1  22
M  SED  22 [#6&h0]
M  SAL  23  1  23
M  SED  23 [#6&h0]
M  SAL  24  1  24
M  SED  24 [#6&h0]
M  SAL  25  1  25
M  SED  25 [#6&h0]
M  SAL  26  1  26
M  SED  26 [#6&h0]
M  SAL  27  1  27
M  SED  27 [#6&h0]
M  SAL  28  1  28
M  SED  28 [#6&h0]
M  SAL  29  1  29
M  SED  29 [#1&h0]
M  SAL  30  1  30
M  SED  30 [#1&h0]
M  SAL  31  1  31
M  SED  31 [#1&h0]
M  SAL  32  1  32
M  SED  32 [#1&h0]
M  SAL  33  1  33
M  SED  33 [#1&h0]
M  SAL  34  1  34
M  SED  34 [#1&h0]
M  SAL  35  1  35
M  SED  35 [#1&h0]
M  SAL  36  1  36
M  SED  36 [#1&h0]
M  SAL  37  1  37
M  SED  37 [#1&h0]
M  SAL  38  1  38
M  SED  38 [#1&h0]
M  SAL  39  1  39
M  SED  39 [#1&h0]
M  SAL  40  1  40
M  SED  40 [#1&h0]
M  SAL  41  1  41
M  SED  41 [#1&h0]
M  SAL  42  1  42
M  SED  42 [#1&h0]
M  SAL  43  1  43
M  SED  43 [#1&h0]
M  SAL  44  1  44
M  SED  44 [#1&h0]
M  SAL  45  1  45
M  SED  45 [#1&h0]
M  SAL  46  1  46
M  SED  46 [#1&h0]
M  SAL  47  1  47
M  SED  47 [#1&h0]
M  SAL  48  1  48
M  SED  48 [#1&h0]
M  SAL  49  1  49
M  SED  49 [#1&h0]
M  SAL  50  1  50
M  SED  50 [#1&h0]
M  SAL  51  1  51
M  SED  51 [#1&h0]
M  SAL  52  1  52
M  SED  52 [#1&h0]
M  SAL  53  1  53
M  SED  53 [#1&h0]
M  SAL  54  1  54
M  SED  54 [#1&h0]
M  SAL  55  1  55
M  SED  55 [#1&h0]
M  SAL  56  1  56
M  SED  56 [#1&h0]
M  SAL  57  1  57
M  SED  57 [#1&h0]
M  SAL  58  1  58
M  SED  58 [#1&h0]
M  SAL  59  1  59
M  SED  59 [#1&h0]
M  SAL  60  1  60
M  SED  60 [#1&h0]
M  SAL  61  1  61
M  SED  61 [#1&h0]
M  SAL  62  1  62
M  SED  62 [#1&h0]
M  END
>  <Activity>  (51) 
0.01

>  <Mapped(file=2032.csv.activities,property=Cached(PUBCHEM_COMPOUND_CID))>  (51) 
100

>  <MatchIndices>  (51) 
95 

>  <PUBCHEM_ATOM_DEF_STEREO_COUNT>  (51) 
0

>  <PUBCHEM_ATOM_UDEF_STEREO_COUNT>  (51) 
1

>  <PUBCHEM_BONDANNOTATIONS>  (51) 
15  17  8
15  18  8
16  19  8
16  20  8
17  21  8
18  22  8
19  23  8
20  25  8
21  24  8
22  24  8
23  26  8
25  26  8
5  10  3

>  <PUBCHEM_BOND_DEF_STEREO_COUNT>  (51) 
0

>  <PUBCHEM_BOND_UDEF_STEREO_COUNT>  (51) 
0

>  <PUBCHEM_CACTVS_COMPLEXITY>  (51) 
425

>  <PUBCHEM_CACTVS_HBOND_ACCEPTOR>  (51) 
4

>  <PUBCHEM_CACTVS_HBOND_DONOR>  (51) 
0

>  <PUBCHEM_CACTVS_ROTATABLE_BOND>  (51) 
9

>  <PUBCHEM_CACTVS_SUBSKEYS>  (51) 
AAADcfB7MAAAAAAAAAAAAAAAAAAAAAAAAAA8YIAAAAAAAAABQAAAHgAAAAAADQTBmAYyBoMABACAAiBCAACCCAAgIAAIiAAODIgMJiKE8RuEMChkwBGIqAewwJAOIAABAAAAAABAAAIAAAAAAAAAAAAAAA==

>  <PUBCHEM_CACTVS_TAUTO_COUNT>  (51) 
1

>  <PUBCHEM_CACTVS_TPSA>  (51) 
24.9

>  <PUBCHEM_COMPONENT_COUNT>  (51) 
1

>  <PUBCHEM_COMPOUND_CANONICALIZED>  (51) 
1

>  <PUBCHEM_COMPOUND_CID>  (51) 
23723675

>  <PUBCHEM_COORDINATE_TYPE>  (51) 
1
5
255

>  <PUBCHEM_EXACT_MASS>  (51) 
382.262028

>  <PUBCHEM_HEAVY_ATOM_COUNT>  (51) 
28

>  <PUBCHEM_ISOTOPIC_ATOM_COUNT>  (51) 
0

>  <PUBCHEM_IUPAC_CAS_NAME>  (51) 
1-[1-[2-(4-methoxyphenyl)ethyl]-3-piperidinyl]-N-[(3-methoxyphenyl)methyl]-N-methylmethanamine

>  <PUBCHEM_IUPAC_INCHI>  (51) 
InChI=1S/C24H34N2O2/c1-25(17-21-6-4-8-24(16-21)28-3)18-22-7-5-14-26(19-22)15-13-20-9-11-23(27-2)12-10-20/h4,6,8-12,16,22H,5,7,13-15,17-19H2,1-3H3

>  <PUBCHEM_IUPAC_INCHIKEY>  (51) 
PYLLKFZVPVVKEW-UHFFFAOYSA-N

>  <PUBCHEM_IUPAC_NAME>  (51) 
1-[1-[2-(4-methoxyphenyl)ethyl]piperidin-3-yl]-N-[(3-methoxyphenyl)methyl]-N-methylmethanamine

>  <PUBCHEM_IUPAC_OPENEYE_NAME>  (51) 
1-[1-[2-(4-methoxyphenyl)ethyl]-3-piperidyl]-N-[(3-methoxyphenyl)methyl]-N-methyl-methanamine

>  <PUBCHEM_IUPAC_SYSTEMATIC_NAME>  (51) 
1-[1-[2-(4-methoxyphenyl)ethyl]piperidin-3-yl]-N-[(3-methoxyphenyl)methyl]-N-methyl-methanamine

>  <PUBCHEM_IUPAC_TRADITIONAL_NAME>  (51) 
m-anisyl-[[1-[2-(4-methoxyphenyl)ethyl]-3-piperidyl]methyl]-methyl-amine

>  <PUBCHEM_MOLECULAR_FORMULA>  (51) 
C24H34N2O2

>  <PUBCHEM_MOLECULAR_WEIGHT>  (51) 
382.53896

>  <PUBCHEM_MONOISOTOPIC_WEIGHT>  (51) 
382.262028

>  <PUBCHEM_OPENEYE_CAN_SMILES>  (51) 
CN(CC1CCCN(C1)CCC2=CC=C(C=C2)OC)CC3=CC(=CC=C3)OC

>  <PUBCHEM_OPENEYE_ISO_SMILES>  (51) 
CN(CC1CCCN(C1)CCC2=CC=C(C=C2)OC)CC3=CC(=CC=C3)OC

>  <PUBCHEM_TOTAL_CHARGE>  (51) 
0

>  <PUBCHEM_XLOGP3_AA>  (51) 
4.4

$$$$
Largest isolated from Written by BCL::WriteToMDL,2976394
     RDKit          2D

 45 46  0 45  0  0  0  0  0  0999 V2000
    0.0032   -2.9016    0.0000 O   0  0  0  0  0  0  0  0  0  0  0  0
   -8.6611   -0.0415    0.0000 O   0  0  0  0  0  0  0  0  0  0  0  0
    3.5835    0.8642    0.0000 O   0  0  0  0  0  0  0  0  0  0  0  0
   -4.3452    1.2326    0.0000 N   0  0  0  0  0  0  0  0  0  0  0  0
   -3.2581    0.1990    0.0000 C   0  0  0  0  0  0  0  0  0  0  0  0
   -2.1710   -0.8345    0.0000 C   0  0  0  0  0  0  0  0  0  0  0  0
   -5.7838    0.8079    0.0000 C   0  0  0  0  0  0  0  0  0  0  0  0
   -7.2224    0.3832    0.0000 C   0  0  0  0  0  0  0  0  0  0  0  0
   -1.0839   -1.8681    0.0000 C   0  0  0  0  0  0  0  0  0  0  0  0
   -7.6471    1.8218    0.0000 C   0  0  0  0  0  0  0  0  0  0  0  0
    1.4418   -2.4769    0.0000 C   0  0  0  0  0  0  0  0  0  0  0  0
    1.7934   -1.0187    0.0000 C   0  0  0  0  0  0  0  0  0  0  0  0
    2.5289   -3.5105    0.0000 C   0  0  0  0  0  0  0  0  0  0  0  0
    3.2320   -0.5940    0.0000 C   0  0  0  0  0  0  0  0  0  0  0  0
    3.9676   -3.0858    0.0000 C   0  0  0  0  0  0  0  0  0  0  0  0
    4.3191   -1.6276    0.0000 C   0  0  0  0  0  0  0  0  0  0  0  0
    5.0221    1.2889    0.0000 C   0  0  0  0  0  0  0  0  0  0  0  0
    6.1092    0.2553    0.0000 C   0  0  0  0  0  0  0  0  0  0  0  0
    5.3737    2.7471    0.0000 C   0  0  0  0  0  0  0  0  0  0  0  0
    7.5479    0.6800    0.0000 C   0  0  0  0  0  0  0  0  0  0  0  0
    6.8123    3.1718    0.0000 C   0  0  0  0  0  0  0  0  0  0  0  0
    7.8994    2.1382    0.0000 C   0  0  0  0  0  0  0  0  0  0  0  0
   -2.2245    1.2861    0.0000 H   0  0  0  0  0  0  0  0  0  0  0  0
   -4.2916   -0.8881    0.0000 H   0  0  0  0  0  0  0  0  0  0  0  0
   -1.1374    0.2526    0.0000 H   0  0  0  0  0  0  0  0  0  0  0  0
   -3.2045   -1.9216    0.0000 H   0  0  0  0  0  0  0  0  0  0  0  0
   -5.9292    1.6816    0.0000 H   0  0  0  0  0  0  0  0  0  0  0  0
   -5.3591   -0.6307    0.0000 H   0  0  0  0  0  0  0  0  0  0  0  0
   -3.9936    2.6908    0.0000 H   0  0  0  0  0  0  0  0  0  0  0  0
   -6.7978   -1.0554    0.0000 H   0  0  0  0  0  0  0  0  0  0  0  0
   -2.1174   -2.9552    0.0000 H   0  0  0  0  0  0  0  0  0  0  0  0
   -0.0503   -0.7810    0.0000 H   0  0  0  0  0  0  0  0  0  0  0  0
   -9.0857    1.3971    0.0000 H   0  0  0  0  0  0  0  0  0  0  0  0
   -6.8345    2.1743    0.0000 H   0  0  0  0  0  0  0  0  0  0  0  0
   -8.0718    3.2605    0.0000 H   0  0  0  0  0  0  0  0  0  0  0  0
   -9.0126   -1.4997    0.0000 H   0  0  0  0  0  0  0  0  0  0  0  0
    0.7063    0.0148    0.0000 H   0  0  0  0  0  0  0  0  0  0  0  0
    2.1774   -4.9687    0.0000 H   0  0  0  0  0  0  0  0  0  0  0  0
    5.0547   -4.1194    0.0000 H   0  0  0  0  0  0  0  0  0  0  0  0
    5.2899   -1.4661    0.0000 H   0  0  0  0  0  0  0  0  0  0  0  0
    5.9970   -0.7224    0.0000 H   0  0  0  0  0  0  0  0  0  0  0  0
    4.2866    3.7806    0.0000 H   0  0  0  0  0  0  0  0  0  0  0  0
    8.6350   -0.3535    0.0000 H   0  0  0  0  0  0  0  0  0  0  0  0
    7.1638    4.6300    0.0000 H   0  0  0  0  0  0  0  0  0  0  0  0
    9.3380    2.5629    0.0000 H   0  0  0  0  0  0  0  0  0  0  0  0
  1  9  1  0
  1 11  1  0
  2  8  1  0
  2 36  1  0
  3 14  1  0
  3 17  1  0
  4  5  1  0
  4  7  1  0
  4 29  1  0
  5  6  1  0
  5 23  1  0
  5 24  1  0
  6  9  1  0
  6 25  1  0
  6 26  1  0
  7  8  1  0
  7 27  1  0
  7 28  1  0
  8 10  1  0
  8 30  1  1
  9 31  1  0
  9 32  1  0
 10 33  1  0
 10 34  1  0
 10 35  1  0
 11 12  2  0
 11 13  1  0
 12 14  1  0
 12 37  1  0
 13 15  2  0
 13 38  1  0
 14 16  2  0
 15 16  1  0
 15 39  1  0
 16 40  1  0
 17 18  2  0
 17 19  1  0
 18 20  1  0
 18 41  1  0
 19 21  2  0
 19 42  1  0
 20 22  2  0
 20 43  1  0
 21 22  1  0
 21 44  1  0
 22 45  1  0
M  STY  8   1 DAT   2 DAT   3 DAT   4 DAT   5 DAT   6 DAT   7 DAT   8 DAT
M  STY  8   9 DAT  10 DAT  11 DAT  12 DAT  13 DAT  14 DAT  15 DAT  16 DAT
M  STY  8  17 DAT  18 DAT  19 DAT  20 DAT  21 DAT  22 DAT  23 DAT  24 DAT
M  STY  8  25 DAT  26 DAT  27 DAT  28 DAT  29 DAT  30 DAT  31 DAT  32 DAT
M  STY  8  33 DAT  34 DAT  35 DAT  36 DAT  37 DAT  38 DAT  39 DAT  40 DAT
M  STY  5  41 DAT  42 DAT  43 DAT  44 DAT  45 DAT
M  SAL   1  1   1
M  SED   1 [#8&h0]
M  SAL   2  1   2
M  SED   2 [#8&h0]
M  SAL   3  1   3
M  SED   3 [#8&h0]
M  SAL   4  1   4
M  SED   4 [#7&h0]
M  SAL   5  1   5
M  SED   5 [#6&h0]
M  SAL   6  1   6
M  SED   6 [#6&h0]
M  SAL   7  1   7
M  SED   7 [#6&h0]
M  SAL   8  1   8
M  SED   8 [#6&h0]
M  SAL   9  1   9
M  SED   9 [#6&h0]
M  SAL  10  1  10
M  SED  10 [#6&h0]
M  SAL  11  1  11
M  SED  11 [#6&h0]
M  SAL  12  1  12
M  SED  12 [#6&h0]
M  SAL  13  1  13
M  SED  13 [#6&h0]
M  SAL  14  1  14
M  SED  14 [#6&h0]
M  SAL  15  1  15
M  SED  15 [#6&h0]
M  SAL  16  1  16
M  SED  16 [#6&h0]
M  SAL  17  1  17
M  SED  17 [#6&h0]
M  SAL  18  1  18
M  SED  18 [#6&h0]
M  SAL  19  1  19
M  SED  19 [#6&h0]
M  SAL  20  1  20
M  SED  20 [#6&h0]
M  SAL  21  1  21
M  SED  21 [#6&h0]
M  SAL  22  1  22
M  SED  22 [#6&h0]
M  SAL  23  1  23
M  SED  23 [#1&h0]
M  SAL  24  1  24
M  SED  24 [#1&h0]
M  SAL  25  1  25
M  SED  25 [#1&h0]
M  SAL  26  1  26
M  SED  26 [#1&h0]
M  SAL  27  1  27
M  SED  27 [#1&h0]
M  SAL  28  1  28
M  SED  28 [#1&h0]
M  SAL  29  1  29
M  SED  29 [#1&h0]
M  SAL  30  1  30
M  SED  30 [#1&h0]
M  SAL  31  1  31
M  SED  31 [#1&h0]
M  SAL  32  1  32
M  SED  32 [#1&h0]
M  SAL  33  1  33
M  SED  33 [#1&h0]
M  SAL  34  1  34
M  SED  34 [#1&h0]
M  SAL  35  1  35
M  SED  35 [#1&h0]
M  SAL  36  1  36
M  SED  36 [#1&h0]
M  SAL  37  1  37
M  SED  37 [#1&h0]
M  SAL  38  1  38
M  SED  38 [#1&h0]
M  SAL  39  1  39
M  SED  39 [#1&h0]
M  SAL  40  1  40
M  SED  40 [#1&h0]
M  SAL  41  1  41
M  SED  41 [#1&h0]
M  SAL  42  1  42
M  SED  42 [#1&h0]
M  SAL  43  1  43
M  SED  43 [#1&h0]
M  SAL  44  1  44
M  SED  44 [#1&h0]
M  SAL  45  1  45
M  SED  45 [#1&h0]
M  END
>  <Activity>  (52) 
0.01

>  <Mapped(file=2032.csv.activities,property=Cached(PUBCHEM_COMPOUND_CID))>  (52) 
100

>  <MatchIndices>  (52) 
9 

>  <PUBCHEM_ATOM_DEF_STEREO_COUNT>  (52) 
0

>  <PUBCHEM_ATOM_UDEF_STEREO_COUNT>  (52) 
1

>  <PUBCHEM_BONDANNOTATIONS>  (52) 
12  36  3
15  16  8
15  17  8
16  18  8
17  19  8
18  20  8
19  20  8
21  22  8
21  23  8
22  24  8
23  25  8
24  26  8
25  26  8

>  <PUBCHEM_BOND_DEF_STEREO_COUNT>  (52) 
0

>  <PUBCHEM_BOND_UDEF_STEREO_COUNT>  (52) 
0

>  <PUBCHEM_CACTVS_COMPLEXITY>  (52) 
353

>  <PUBCHEM_CACTVS_HBOND_ACCEPTOR>  (52) 
8

>  <PUBCHEM_CACTVS_HBOND_DONOR>  (52) 
4

>  <PUBCHEM_CACTVS_ROTATABLE_BOND>  (52) 
10

>  <PUBCHEM_CACTVS_SUBSKEYS>  (52) 
AAADceB6OAAAAAAAAAAAAAAAAAAAAAAAAAAwYAAAAAAAAAABQAAAHgAQCAAACBThkAYyDoLABgCIACDSCAICCAAgIAAIiIBOCIgPNyKEMRqGOCCn0BWZqAeAYAwAAAAACAAAAAAAAAAQAAAAAAAAAAAAAA==

>  <PUBCHEM_CACTVS_TAUTO_COUNT>  (52) 
1

>  <PUBCHEM_CACTVS_TPSA>  (52) 
125

>  <PUBCHEM_COMPONENT_COUNT>  (52) 
2

>  <PUBCHEM_COMPOUND_CANONICALIZED>  (52) 
1

>  <PUBCHEM_COMPOUND_CID>  (52) 
2976394

>  <PUBCHEM_COORDINATE_TYPE>  (52) 
1
5
255

>  <PUBCHEM_EXACT_MASS>  (52) 
391.163102

>  <PUBCHEM_HEAVY_ATOM_COUNT>  (52) 
28

>  <PUBCHEM_ISOTOPIC_ATOM_COUNT>  (52) 
0

>  <PUBCHEM_IUPAC_CAS_NAME>  (52) 
oxalic acid; 1-[3-(3-phenoxyphenoxy)propylamino]-2-propanol

>  <PUBCHEM_IUPAC_INCHI>  (52) 
InChI=1S/C18H23NO3.C2H2O4/c1-15(20)14-19-11-6-12-21-17-9-5-10-18(13-17)22-16-7-3-2-4-8-16;3-1(4)2(5)6/h2-5,7-10,13,15,19-20H,6,11-12,14H2,1H3;(H,3,4)(H,5,6)

>  <PUBCHEM_IUPAC_INCHIKEY>  (52) 
KJZVGRXWNKJRKR-UHFFFAOYSA-N

>  <PUBCHEM_IUPAC_NAME>  (52) 
oxalic acid; 1-[3-(3-phenoxyphenoxy)propylamino]propan-2-ol

>  <PUBCHEM_IUPAC_OPENEYE_NAME>  (52) 
oxalic acid; 1-[3-(3-phenoxyphenoxy)propylamino]propan-2-ol

>  <PUBCHEM_IUPAC_SYSTEMATIC_NAME>  (52) 
ethanedioic acid; 1-[3-(3-phenoxyphenoxy)propylamino]propan-2-ol

>  <PUBCHEM_IUPAC_TRADITIONAL_NAME>  (52) 
oxalic acid; 1-[3-(3-phenoxyphenoxy)propylamino]propan-2-ol

>  <PUBCHEM_MOLECULAR_FORMULA>  (52) 
C20H25NO7

>  <PUBCHEM_MOLECULAR_WEIGHT>  (52) 
391.415

>  <PUBCHEM_MONOISOTOPIC_WEIGHT>  (52) 
391.163102

>  <PUBCHEM_OPENEYE_CAN_SMILES>  (52) 
CC(CNCCCOC1=CC=CC(=C1)OC2=CC=CC=C2)O.C(=O)(C(=O)O)O

>  <PUBCHEM_OPENEYE_ISO_SMILES>  (52) 
CC(CNCCCOC1=CC=CC(=C1)OC2=CC=CC=C2)O.C(=O)(C(=O)O)O

>  <PUBCHEM_TOTAL_CHARGE>  (52) 
0

$$$$
Largest isolated from Written by BCL::WriteToMDL,2838218
     RDKit          2D

 43 45  0 43  0  0  0  0  0  0999 V2000
    0.4941   -1.9367    0.0000 O   0  0  0  0  0  0  0  0  0  0  0  0
   -0.0186    1.9987    0.0000 N   0  0  0  0  0  0  0  0  0  0  0  0
    2.2219    0.0036    0.0000 C   0  0  0  0  0  0  0  0  0  0  0  0
    1.1017    1.0011    0.0000 C   0  0  0  0  0  0  0  0  0  0  0  0
    3.6459    0.4750    0.0000 C   0  0  0  0  0  0  0  0  0  0  0  0
   -1.4426    1.5273    0.0000 C   0  0  0  0  0  0  0  0  0  0  0  0
    4.7661   -0.5225    0.0000 C   0  0  0  0  0  0  0  0  0  0  0  0
   -2.8666    1.0559    0.0000 C   0  0  0  0  0  0  0  0  0  0  0  0
    1.9181   -1.4653    0.0000 C   0  0  0  0  0  0  0  0  0  0  0  0
    4.4624   -1.9914    0.0000 C   0  0  0  0  0  0  0  0  0  0  0  0
    3.9497    1.9439    0.0000 C   0  0  0  0  0  0  0  0  0  0  0  0
    3.0384   -2.4628    0.0000 C   0  0  0  0  0  0  0  0  0  0  0  0
   -4.2906    0.5845    0.0000 C   0  0  0  0  0  0  0  0  0  0  0  0
    6.1902   -0.0511    0.0000 C   0  0  0  0  0  0  0  0  0  0  0  0
    5.3737    2.4153    0.0000 C   0  0  0  0  0  0  0  0  0  0  0  0
    6.4939    1.4178    0.0000 C   0  0  0  0  0  0  0  0  0  0  0  0
   -5.4108    1.5820    0.0000 C   0  0  0  0  0  0  0  0  0  0  0  0
   -4.5944   -0.8845    0.0000 C   0  0  0  0  0  0  0  0  0  0  0  0
   -6.8348    1.1106    0.0000 C   0  0  0  0  0  0  0  0  0  0  0  0
   -6.0184   -1.3559    0.0000 C   0  0  0  0  0  0  0  0  0  0  0  0
   -7.1386   -0.3583    0.0000 C   0  0  0  0  0  0  0  0  0  0  0  0
    0.1904   -3.4056    0.0000 C   0  0  0  0  0  0  0  0  0  0  0  0
    2.0992    2.1214    0.0000 H   0  0  0  0  0  0  0  0  0  0  0  0
    0.1041   -0.1191    0.0000 H   0  0  0  0  0  0  0  0  0  0  0  0
   -1.9140    2.9513    0.0000 H   0  0  0  0  0  0  0  0  0  0  0  0
   -0.9712    0.1033    0.0000 H   0  0  0  0  0  0  0  0  0  0  0  0
    0.2852    3.4676    0.0000 H   0  0  0  0  0  0  0  0  0  0  0  0
   -3.3380    2.4799    0.0000 H   0  0  0  0  0  0  0  0  0  0  0  0
   -2.3952   -0.3681    0.0000 H   0  0  0  0  0  0  0  0  0  0  0  0
    5.5826   -2.9889    0.0000 H   0  0  0  0  0  0  0  0  0  0  0  0
    2.8294    2.9415    0.0000 H   0  0  0  0  0  0  0  0  0  0  0  0
    2.7346   -3.9317    0.0000 H   0  0  0  0  0  0  0  0  0  0  0  0
    7.3104   -1.0486    0.0000 H   0  0  0  0  0  0  0  0  0  0  0  0
    5.6774    3.8843    0.0000 H   0  0  0  0  0  0  0  0  0  0  0  0
    7.9179    1.8892    0.0000 H   0  0  0  0  0  0  0  0  0  0  0  0
   -5.1071    3.0509    0.0000 H   0  0  0  0  0  0  0  0  0  0  0  0
   -3.4741   -1.8820    0.0000 H   0  0  0  0  0  0  0  0  0  0  0  0
   -7.9551    2.1081    0.0000 H   0  0  0  0  0  0  0  0  0  0  0  0
   -6.3221   -2.8248    0.0000 H   0  0  0  0  0  0  0  0  0  0  0  0
   -8.5626   -0.8297    0.0000 H   0  0  0  0  0  0  0  0  0  0  0  0
    1.6593   -3.7094    0.0000 H   0  0  0  0  0  0  0  0  0  0  0  0
   -1.2785   -3.1019    0.0000 H   0  0  0  0  0  0  0  0  0  0  0  0
   -0.1134   -4.8745    0.0000 H   0  0  0  0  0  0  0  0  0  0  0  0
  1  9  1  0
  1 22  1  0
  2  4  1  0
  2  6  1  0
  2 27  1  0
  3  4  1  0
  3  5  1  0
  3  9  2  0
  4 23  1  0
  4 24  1  0
  5  7  2  0
  5 11  1  0
  6  8  1  0
  6 25  1  0
  6 26  1  0
  7 10  1  0
  7 14  1  0
  8 13  1  0
  8 28  1  0
  8 29  1  0
  9 12  1  0
 10 12  2  0
 10 30  1  0
 11 15  2  0
 11 31  1  0
 12 32  1  0
 13 17  2  0
 13 18  1  0
 14 16  2  0
 14 33  1  0
 15 16  1  0
 15 34  1  0
 16 35  1  0
 17 19  1  0
 17 36  1  0
 18 20  2  0
 18 37  1  0
 19 21  2  0
 19 38  1  0
 20 21  1  0
 20 39  1  0
 21 40  1  0
 22 41  1  0
 22 42  1  0
 22 43  1  0
M  STY  8   1 DAT   2 DAT   3 DAT   4 DAT   5 DAT   6 DAT   7 DAT   8 DAT
M  STY  8   9 DAT  10 DAT  11 DAT  12 DAT  13 DAT  14 DAT  15 DAT  16 DAT
M  STY  8  17 DAT  18 DAT  19 DAT  20 DAT  21 DAT  22 DAT  23 DAT  24 DAT
M  STY  8  25 DAT  26 DAT  27 DAT  28 DAT  29 DAT  30 DAT  31 DAT  32 DAT
M  STY  8  33 DAT  34 DAT  35 DAT  36 DAT  37 DAT  38 DAT  39 DAT  40 DAT
M  STY  3  41 DAT  42 DAT  43 DAT
M  SAL   1  1   1
M  SED   1 [#8&h0]
M  SAL   2  1   2
M  SED   2 [#7&h0]
M  SAL   3  1   3
M  SED   3 [#6&h0]
M  SAL   4  1   4
M  SED   4 [#6&h0]
M  SAL   5  1   5
M  SED   5 [#6&h0]
M  SAL   6  1   6
M  SED   6 [#6&h0]
M  SAL   7  1   7
M  SED   7 [#6&h0]
M  SAL   8  1   8
M  SED   8 [#6&h0]
M  SAL   9  1   9
M  SED   9 [#6&h0]
M  SAL  10  1  10
M  SED  10 [#6&h0]
M  SAL  11  1  11
M  SED  11 [#6&h0]
M  SAL  12  1  12
M  SED  12 [#6&h0]
M  SAL  13  1  13
M  SED  13 [#6&h0]
M  SAL  14  1  14
M  SED  14 [#6&h0]
M  SAL  15  1  15
M  SED  15 [#6&h0]
M  SAL  16  1  16
M  SED  16 [#6&h0]
M  SAL  17  1  17
M  SED  17 [#6&h0]
M  SAL  18  1  18
M  SED  18 [#6&h0]
M  SAL  19  1  19
M  SED  19 [#6&h0]
M  SAL  20  1  20
M  SED  20 [#6&h0]
M  SAL  21  1  21
M  SED  21 [#6&h0]
M  SAL  22  1  22
M  SED  22 [#6&h0]
M  SAL  23  1  23
M  SED  23 [#1&h0]
M  SAL  24  1  24
M  SED  24 [#1&h0]
M  SAL  25  1  25
M  SED  25 [#1&h0]
M  SAL  26  1  26
M  SED  26 [#1&h0]
M  SAL  27  1  27
M  SED  27 [#1&h0]
M  SAL  28  1  28
M  SED  28 [#1&h0]
M  SAL  29  1  29
M  SED  29 [#1&h0]
M  SAL  30  1  30
M  SED  30 [#1&h0]
M  SAL  31  1  31
M  SED  31 [#1&h0]
M  SAL  32  1  32
M  SED  32 [#1&h0]
M  SAL  33  1  33
M  SED  33 [#1&h0]
M  SAL  34  1  34
M  SED  34 [#1&h0]
M  SAL  35  1  35
M  SED  35 [#1&h0]
M  SAL  36  1  36
M  SED  36 [#1&h0]
M  SAL  37  1  37
M  SED  37 [#1&h0]
M  SAL  38  1  38
M  SED  38 [#1&h0]
M  SAL  39  1  39
M  SED  39 [#1&h0]
M  SAL  40  1  40
M  SED  40 [#1&h0]
M  SAL  41  1  41
M  SED  41 [#1&h0]
M  SAL  42  1  42
M  SED  42 [#1&h0]
M  SAL  43  1  43
M  SED  43 [#1&h0]
M  END
>  <Activity>  (53) 
0.01

>  <Mapped(file=2032.csv.activities,property=Cached(PUBCHEM_COMPOUND_CID))>  (53) 
100

>  <MatchIndices>  (53) 
125 

>  <PUBCHEM_ATOM_DEF_STEREO_COUNT>  (53) 
0

>  <PUBCHEM_ATOM_UDEF_STEREO_COUNT>  (53) 
0

>  <PUBCHEM_BONDANNOTATIONS>  (53) 
10  13  8
11  13  8
12  16  8
14  18  8
14  19  8
15  17  8
16  17  8
18  20  8
19  21  8
20  22  8
21  22  8
4  10  8
4  6  8
6  12  8
6  8  8
8  11  8
8  15  8

>  <PUBCHEM_BOND_DEF_STEREO_COUNT>  (53) 
0

>  <PUBCHEM_BOND_UDEF_STEREO_COUNT>  (53) 
0

>  <PUBCHEM_CACTVS_COMPLEXITY>  (53) 
313

>  <PUBCHEM_CACTVS_HBOND_ACCEPTOR>  (53) 
2

>  <PUBCHEM_CACTVS_HBOND_DONOR>  (53) 
2

>  <PUBCHEM_CACTVS_ROTATABLE_BOND>  (53) 
6

>  <PUBCHEM_CACTVS_SUBSKEYS>  (53) 
AAADceB6IAAEAAAAAAAAAAAAAAAAAAAAAAAwYMAAAAAAAADBVAAAHgAQAAAADATBmAYyBsLABACAAiBCAACCCAAgIAAIiIAODIgMJiKEsRuEMChm0BGIqAeQwPAOoAADAAAYAABAAAYAADAAAAAAAAAAAA==

>  <PUBCHEM_CACTVS_TAUTO_COUNT>  (53) 
1

>  <PUBCHEM_CACTVS_TPSA>  (53) 
21.3

>  <PUBCHEM_COMPONENT_COUNT>  (53) 
2

>  <PUBCHEM_COMPOUND_CANONICALIZED>  (53) 
1

>  <PUBCHEM_COMPOUND_CID>  (53) 
2838218

>  <PUBCHEM_COORDINATE_TYPE>  (53) 
1
5
255

>  <PUBCHEM_EXACT_MASS>  (53) 
327.138992

>  <PUBCHEM_HEAVY_ATOM_COUNT>  (53) 
23

>  <PUBCHEM_ISOTOPIC_ATOM_COUNT>  (53) 
0

>  <PUBCHEM_IUPAC_CAS_NAME>  (53) 
N-[(2-methoxy-1-naphthalenyl)methyl]-2-phenylethanamine hydrochloride

>  <PUBCHEM_IUPAC_INCHI>  (53) 
InChI=1S/C20H21NO.ClH/c1-22-20-12-11-17-9-5-6-10-18(17)19(20)15-21-14-13-16-7-3-2-4-8-16;/h2-12,21H,13-15H2,1H3;1H

>  <PUBCHEM_IUPAC_INCHIKEY>  (53) 
VFUDWBIJYZEYNE-UHFFFAOYSA-N

>  <PUBCHEM_IUPAC_NAME>  (53) 
N-[(2-methoxynaphthalen-1-yl)methyl]-2-phenylethanamine hydrochloride

>  <PUBCHEM_IUPAC_OPENEYE_NAME>  (53) 
N-[(2-methoxy-1-naphthyl)methyl]-2-phenyl-ethanamine hydrochloride

>  <PUBCHEM_IUPAC_SYSTEMATIC_NAME>  (53) 
N-[(2-methoxynaphthalen-1-yl)methyl]-2-phenyl-ethanamine hydrochloride

>  <PUBCHEM_IUPAC_TRADITIONAL_NAME>  (53) 
(2-methoxy-1-naphthyl)methyl-phenethyl-amine hydrochloride

>  <PUBCHEM_MOLECULAR_FORMULA>  (53) 
C20H22ClNO

>  <PUBCHEM_MOLECULAR_WEIGHT>  (53) 
327.84778

>  <PUBCHEM_MONOISOTOPIC_WEIGHT>  (53) 
327.138992

>  <PUBCHEM_OPENEYE_CAN_SMILES>  (53) 
COC1=C(C2=CC=CC=C2C=C1)CNCCC3=CC=CC=C3.Cl

>  <PUBCHEM_OPENEYE_ISO_SMILES>  (53) 
COC1=C(C2=CC=CC=C2C=C1)CNCCC3=CC=CC=C3.Cl

>  <PUBCHEM_TOTAL_CHARGE>  (53) 
0

$$$$
Largest isolated from Written by BCL::WriteToMDL,6917789
     RDKit          2D

 43 44  0 43  0  0  0  0  0  0999 V2000
   -0.4435    0.1536    0.0000 O   0  0  0  0  0  0  0  0  0  0  0  0
    7.0365   -0.3940    0.0000 N   0  0  0  0  0  0  0  0  0  0  0  0
    2.5485   -0.0654    0.0000 C   0  0  0  0  0  0  0  0  0  0  0  0
    4.0445   -0.1750    0.0000 C   0  0  0  0  0  0  0  0  0  0  0  0
    1.0525    0.0441    0.0000 C   0  0  0  0  0  0  0  0  0  0  0  0
    5.5405   -0.2845    0.0000 C   0  0  0  0  0  0  0  0  0  0  0  0
   -2.5926    1.6135    0.0000 C   0  0  0  0  0  0  0  0  0  0  0  0
   -3.4354    0.3727    0.0000 C   0  0  0  0  0  0  0  0  0  0  0  0
   -1.0966    1.5040    0.0000 C   0  0  0  0  0  0  0  0  0  0  0  0
   -4.2783   -0.8681    0.0000 C   0  0  0  0  0  0  0  0  0  0  0  0
   -3.2457    2.9638    0.0000 C   0  0  0  0  0  0  0  0  0  0  0  0
   -0.2537    2.7448    0.0000 C   0  0  0  0  0  0  0  0  0  0  0  0
   -2.4029    4.2046    0.0000 C   0  0  0  0  0  0  0  0  0  0  0  0
   -0.9069    4.0951    0.0000 C   0  0  0  0  0  0  0  0  0  0  0  0
   -5.7743   -0.7586    0.0000 C   0  0  0  0  0  0  0  0  0  0  0  0
   -3.6252   -2.2184    0.0000 C   0  0  0  0  0  0  0  0  0  0  0  0
    7.6897   -1.7444    0.0000 C   0  0  0  0  0  0  0  0  0  0  0  0
   -6.6172   -1.9994    0.0000 C   0  0  0  0  0  0  0  0  0  0  0  0
   -4.4680   -3.4592    0.0000 C   0  0  0  0  0  0  0  0  0  0  0  0
   -5.9640   -3.3497    0.0000 C   0  0  0  0  0  0  0  0  0  0  0  0
    2.6581    1.4306    0.0000 H   0  0  0  0  0  0  0  0  0  0  0  0
    2.4390   -1.5614    0.0000 H   0  0  0  0  0  0  0  0  0  0  0  0
    3.9350   -1.6710    0.0000 H   0  0  0  0  0  0  0  0  0  0  0  0
    4.1541    1.3210    0.0000 H   0  0  0  0  0  0  0  0  0  0  0  0
    0.9430   -1.4519    0.0000 H   0  0  0  0  0  0  0  0  0  0  0  0
    1.1621    1.5401    0.0000 H   0  0  0  0  0  0  0  0  0  0  0  0
    5.4310   -1.7805    0.0000 H   0  0  0  0  0  0  0  0  0  0  0  0
    5.6501    1.2115    0.0000 H   0  0  0  0  0  0  0  0  0  0  0  0
   -2.1946   -0.4702    0.0000 H   0  0  0  0  0  0  0  0  0  0  0  0
   -4.6762    1.2156    0.0000 H   0  0  0  0  0  0  0  0  0  0  0  0
   -4.7417    3.0734    0.0000 H   0  0  0  0  0  0  0  0  0  0  0  0
    1.2423    2.6352    0.0000 H   0  0  0  0  0  0  0  0  0  0  0  0
    7.8794    0.8468    0.0000 H   0  0  0  0  0  0  0  0  0  0  0  0
   -3.0560    5.5550    0.0000 H   0  0  0  0  0  0  0  0  0  0  0  0
   -0.0640    5.3359    0.0000 H   0  0  0  0  0  0  0  0  0  0  0  0
   -6.4274    0.5918    0.0000 H   0  0  0  0  0  0  0  0  0  0  0  0
   -2.1292   -2.3280    0.0000 H   0  0  0  0  0  0  0  0  0  0  0  0
    9.0400   -1.0912    0.0000 H   0  0  0  0  0  0  0  0  0  0  0  0
    6.3393   -2.3975    0.0000 H   0  0  0  0  0  0  0  0  0  0  0  0
    8.3428   -3.0947    0.0000 H   0  0  0  0  0  0  0  0  0  0  0  0
   -8.1131   -1.8898    0.0000 H   0  0  0  0  0  0  0  0  0  0  0  0
   -3.8149   -4.8096    0.0000 H   0  0  0  0  0  0  0  0  0  0  0  0
   -6.8069   -4.5905    0.0000 H   0  0  0  0  0  0  0  0  0  0  0  0
  1  5  1  0
  1  9  1  0
  2  6  1  0
  2 17  1  0
  2 33  1  0
  3  4  1  0
  3  5  1  0
  3 21  1  0
  3 22  1  0
  4  6  1  0
  4 23  1  0
  4 24  1  0
  5 25  1  0
  5 26  1  0
  6 27  1  0
  6 28  1  0
  7  8  1  0
  7  9  2  0
  7 11  1  0
  8 10  1  0
  8 29  1  0
  8 30  1  0
  9 12  1  0
 10 15  2  0
 10 16  1  0
 11 13  2  0
 11 31  1  0
 12 14  2  0
 12 32  1  0
 13 14  1  0
 13 34  1  0
 14 35  1  0
 15 18  1  0
 15 36  1  0
 16 19  2  0
 16 37  1  0
 17 38  1  0
 17 39  1  0
 17 40  1  0
 18 20  2  0
 18 41  1  0
 19 20  1  0
 19 42  1  0
 20 43  1  0
M  STY  8   1 DAT   2 DAT   3 DAT   4 DAT   5 DAT   6 DAT   7 DAT   8 DAT
M  STY  8   9 DAT  10 DAT  11 DAT  12 DAT  13 DAT  14 DAT  15 DAT  16 DAT
M  STY  8  17 DAT  18 DAT  19 DAT  20 DAT  21 DAT  22 DAT  23 DAT  24 DAT
M  STY  8  25 DAT  26 DAT  27 DAT  28 DAT  29 DAT  30 DAT  31 DAT  32 DAT
M  STY  8  33 DAT  34 DAT  35 DAT  36 DAT  37 DAT  38 DAT  39 DAT  40 DAT
M  STY  3  41 DAT  42 DAT  43 DAT
M  SAL   1  1   1
M  SED   1 [#8&h0]
M  SAL   2  1   2
M  SED   2 [#7&h0]
M  SAL   3  1   3
M  SED   3 [#6&h0]
M  SAL   4  1   4
M  SED   4 [#6&h0]
M  SAL   5  1   5
M  SED   5 [#6&h0]
M  SAL   6  1   6
M  SED   6 [#6&h0]
M  SAL   7  1   7
M  SED   7 [#6&h0]
M  SAL   8  1   8
M  SED   8 [#6&h0]
M  SAL   9  1   9
M  SED   9 [#6&h0]
M  SAL  10  1  10
M  SED  10 [#6&h0]
M  SAL  11  1  11
M  SED  11 [#6&h0]
M  SAL  12  1  12
M  SED  12 [#6&h0]
M  SAL  13  1  13
M  SED  13 [#6&h0]
M  SAL  14  1  14
M  SED  14 [#6&h0]
M  SAL  15  1  15
M  SED  15 [#6&h0]
M  SAL  16  1  16
M  SED  16 [#6&h0]
M  SAL  17  1  17
M  SED  17 [#6&h0]
M  SAL  18  1  18
M  SED  18 [#6&h0]
M  SAL  19  1  19
M  SED  19 [#6&h0]
M  SAL  20  1  20
M  SED  20 [#6&h0]
M  SAL  21  1  21
M  SED  21 [#1&h0]
M  SAL  22  1  22
M  SED  22 [#1&h0]
M  SAL  23  1  23
M  SED  23 [#1&h0]
M  SAL  24  1  24
M  SED  24 [#1&h0]
M  SAL  25  1  25
M  SED  25 [#1&h0]
M  SAL  26  1  26
M  SED  26 [#1&h0]
M  SAL  27  1  27
M  SED  27 [#1&h0]
M  SAL  28  1  28
M  SED  28 [#1&h0]
M  SAL  29  1  29
M  SED  29 [#1&h0]
M  SAL  30  1  30
M  SED  30 [#1&h0]
M  SAL  31  1  31
M  SED  31 [#1&h0]
M  SAL  32  1  32
M  SED  32 [#1&h0]
M  SAL  33  1  33
M  SED  33 [#1&h0]
M  SAL  34  1  34
M  SED  34 [#1&h0]
M  SAL  35  1  35
M  SED  35 [#1&h0]
M  SAL  36  1  36
M  SED  36 [#1&h0]
M  SAL  37  1  37
M  SED  37 [#1&h0]
M  SAL  38  1  38
M  SED  38 [#1&h0]
M  SAL  39  1  39
M  SED  39 [#1&h0]
M  SAL  40  1  40
M  SED  40 [#1&h0]
M  SAL  41  1  41
M  SED  41 [#1&h0]
M  SAL  42  1  42
M  SED  42 [#1&h0]
M  SAL  43  1  43
M  SED  43 [#1&h0]
M  END
>  <Activity>  (54) 
0.01

>  <Mapped(file=2032.csv.activities,property=Cached(PUBCHEM_COMPOUND_CID))>  (54) 
100

>  <MatchIndices>  (54) 
123 

>  <PUBCHEM_ATOM_DEF_STEREO_COUNT>  (54) 
0

>  <PUBCHEM_ATOM_UDEF_STEREO_COUNT>  (54) 
0

>  <PUBCHEM_BONDANNOTATIONS>  (54) 
10  13  8
11  16  8
11  17  8
12  14  8
13  15  8
14  15  8
16  19  8
17  20  8
19  21  8
20  21  8
8  10  8
8  12  8

>  <PUBCHEM_BOND_DEF_STEREO_COUNT>  (54) 
0

>  <PUBCHEM_BOND_UDEF_STEREO_COUNT>  (54) 
0

>  <PUBCHEM_CACTVS_COMPLEXITY>  (54) 
238

>  <PUBCHEM_CACTVS_HBOND_ACCEPTOR>  (54) 
2

>  <PUBCHEM_CACTVS_HBOND_DONOR>  (54) 
2

>  <PUBCHEM_CACTVS_ROTATABLE_BOND>  (54) 
8

>  <PUBCHEM_CACTVS_SUBSKEYS>  (54) 
AAADceB6IAAEAAAAAAAAAAAAAAAAAAAAAAAwYAAAAAAAAAABQAAAHgAQAAAADAThmAYyBoLABACAAiBCAAACCAAgIAAIiIAOCIgMJiKEsRqGOCCk0BEIqAegwOAOAAAAAAAIAAAAAAAAABAAAAAAAAAAAA==

>  <PUBCHEM_CACTVS_TAUTO_COUNT>  (54) 
1

>  <PUBCHEM_CACTVS_TPSA>  (54) 
21.3

>  <PUBCHEM_COMPONENT_COUNT>  (54) 
2

>  <PUBCHEM_COMPOUND_CANONICALIZED>  (54) 
1

>  <PUBCHEM_COMPOUND_CID>  (54) 
6917789

>  <PUBCHEM_COORDINATE_TYPE>  (54) 
1
5
255

>  <PUBCHEM_EXACT_MASS>  (54) 
305.154642

>  <PUBCHEM_HEAVY_ATOM_COUNT>  (54) 
21

>  <PUBCHEM_ISOTOPIC_ATOM_COUNT>  (54) 
0

>  <PUBCHEM_IUPAC_CAS_NAME>  (54) 
N-methyl-4-[2-(phenylmethyl)phenoxy]-1-butanamine hydrochloride

>  <PUBCHEM_IUPAC_INCHI>  (54) 
InChI=1S/C18H23NO.ClH/c1-19-13-7-8-14-20-18-12-6-5-11-17(18)15-16-9-3-2-4-10-16;/h2-6,9-12,19H,7-8,13-15H2,1H3;1H

>  <PUBCHEM_IUPAC_INCHIKEY>  (54) 
MEAHDXWXNNDSAK-UHFFFAOYSA-N

>  <PUBCHEM_IUPAC_NAME>  (54) 
4-(2-benzylphenoxy)-N-methylbutan-1-amine hydrochloride

>  <PUBCHEM_IUPAC_OPENEYE_NAME>  (54) 
4-(2-benzylphenoxy)-N-methyl-butan-1-amine hydrochloride

>  <PUBCHEM_IUPAC_SYSTEMATIC_NAME>  (54) 
N-methyl-4-[2-(phenylmethyl)phenoxy]butan-1-amine hydrochloride

>  <PUBCHEM_IUPAC_TRADITIONAL_NAME>  (54) 
4-(2-benzylphenoxy)butyl-methyl-amine hydrochloride

>  <PUBCHEM_MOLECULAR_FORMULA>  (54) 
C18H24ClNO

>  <PUBCHEM_MOLECULAR_WEIGHT>  (54) 
305.84226

>  <PUBCHEM_MONOISOTOPIC_WEIGHT>  (54) 
305.154642

>  <PUBCHEM_OPENEYE_CAN_SMILES>  (54) 
CNCCCCOC1=CC=CC=C1CC2=CC=CC=C2.Cl

>  <PUBCHEM_OPENEYE_ISO_SMILES>  (54) 
CNCCCCOC1=CC=CC=C1CC2=CC=CC=C2.Cl

>  <PUBCHEM_TOTAL_CHARGE>  (54) 
0

$$$$
Largest isolated from Written by BCL::WriteToMDL,2962951
     RDKit          2D

 37 38  0 37  0  0  0  0  0  0999 V2000
   -0.3251   -1.6530    0.0000 S   0  0  0  0  0  0  0  0  0  0  0  0
   -5.9731    0.3720    0.0000 S   0  0  0  0  0  0  0  0  0  0  0  0
   -0.1496   -0.8754    0.0000 O   0  0  0  0  0  0  0  0  0  0  0  0
   -0.8314   -3.0650    0.0000 O   0  0  0  0  0  0  0  0  0  0  0  0
    1.0869   -2.1593    0.0000 N   0  0  0  0  0  0  0  0  0  0  0  0
    2.2313   -1.1896    0.0000 C   0  0  0  0  0  0  0  0  0  0  0  0
    3.3757   -0.2199    0.0000 C   0  0  0  0  0  0  0  0  0  0  0  0
    1.2616   -0.0451    0.0000 C   0  0  0  0  0  0  0  0  0  0  0  0
   -1.7371   -1.1468    0.0000 C   0  0  0  0  0  0  0  0  0  0  0  0
    3.1081    1.2561    0.0000 C   0  0  0  0  0  0  0  0  0  0  0  0
    4.7877   -0.7261    0.0000 C   0  0  0  0  0  0  0  0  0  0  0  0
   -2.0047    0.3292    0.0000 C   0  0  0  0  0  0  0  0  0  0  0  0
   -2.8815   -2.1164    0.0000 C   0  0  0  0  0  0  0  0  0  0  0  0
    4.2526    2.2258    0.0000 C   0  0  0  0  0  0  0  0  0  0  0  0
    5.9321    0.2436    0.0000 C   0  0  0  0  0  0  0  0  0  0  0  0
   -3.4167    0.8354    0.0000 C   0  0  0  0  0  0  0  0  0  0  0  0
   -4.2935   -1.6102    0.0000 C   0  0  0  0  0  0  0  0  0  0  0  0
   -4.5611   -0.1343    0.0000 C   0  0  0  0  0  0  0  0  0  0  0  0
    5.6645    1.7195    0.0000 C   0  0  0  0  0  0  0  0  0  0  0  0
   -6.2406    1.8479    0.0000 C   0  0  0  0  0  0  0  0  0  0  0  0
    3.2010   -2.3340    0.0000 H   0  0  0  0  0  0  0  0  0  0  0  0
    1.3544   -3.6352    0.0000 H   0  0  0  0  0  0  0  0  0  0  0  0
    2.1374    1.1727    0.0000 H   0  0  0  0  0  0  0  0  0  0  0  0
    0.4255   -0.3375    0.0000 H   0  0  0  0  0  0  0  0  0  0  0  0
    0.2919    1.0993    0.0000 H   0  0  0  0  0  0  0  0  0  0  0  0
    1.6962    1.7623    0.0000 H   0  0  0  0  0  0  0  0  0  0  0  0
    5.0553   -2.2021    0.0000 H   0  0  0  0  0  0  0  0  0  0  0  0
   -0.8603    1.2989    0.0000 H   0  0  0  0  0  0  0  0  0  0  0  0
   -2.6140   -3.5924    0.0000 H   0  0  0  0  0  0  0  0  0  0  0  0
    3.9850    3.7017    0.0000 H   0  0  0  0  0  0  0  0  0  0  0  0
    7.3441   -0.2627    0.0000 H   0  0  0  0  0  0  0  0  0  0  0  0
   -3.6842    2.3114    0.0000 H   0  0  0  0  0  0  0  0  0  0  0  0
   -5.4379   -2.5799    0.0000 H   0  0  0  0  0  0  0  0  0  0  0  0
    6.8090    2.6892    0.0000 H   0  0  0  0  0  0  0  0  0  0  0  0
   -7.7166    1.5804    0.0000 H   0  0  0  0  0  0  0  0  0  0  0  0
   -4.7647    2.1155    0.0000 H   0  0  0  0  0  0  0  0  0  0  0  0
   -6.5082    3.3239    0.0000 H   0  0  0  0  0  0  0  0  0  0  0  0
  1  3  2  0
  1  4  2  0
  1  5  1  0
  1  9  1  0
  2 18  1  0
  2 20  1  0
  5  6  1  0
  5 22  1  0
  6  7  1  0
  6  8  1  0
  6 21  1  1
  7 10  2  0
  7 11  1  0
  8 23  1  0
  8 24  1  0
  8 25  1  0
  9 12  2  0
  9 13  1  0
 10 14  1  0
 10 26  1  0
 11 15  2  0
 11 27  1  0
 12 16  1  0
 12 28  1  0
 13 17  2  0
 13 29  1  0
 14 19  2  0
 14 30  1  0
 15 19  1  0
 15 31  1  0
 16 18  2  0
 16 32  1  0
 17 18  1  0
 17 33  1  0
 19 34  1  0
 20 35  1  0
 20 36  1  0
 20 37  1  0
M  STY  8   1 DAT   2 DAT   3 DAT   4 DAT   5 DAT   6 DAT   7 DAT   8 DAT
M  STY  8   9 DAT  10 DAT  11 DAT  12 DAT  13 DAT  14 DAT  15 DAT  16 DAT
M  STY  8  17 DAT  18 DAT  19 DAT  20 DAT  21 DAT  22 DAT  23 DAT  24 DAT
M  STY  8  25 DAT  26 DAT  27 DAT  28 DAT  29 DAT  30 DAT  31 DAT  32 DAT
M  STY  5  33 DAT  34 DAT  35 DAT  36 DAT  37 DAT
M  SAL   1  1   1
M  SED   1 [#16&h0]
M  SAL   2  1   2
M  SED   2 [#16&h0]
M  SAL   3  1   3
M  SED   3 [#8&h0]
M  SAL   4  1   4
M  SED   4 [#8&h0]
M  SAL   5  1   5
M  SED   5 [#7&h0]
M  SAL   6  1   6
M  SED   6 [#6&h0]
M  SAL   7  1   7
M  SED   7 [#6&h0]
M  SAL   8  1   8
M  SED   8 [#6&h0]
M  SAL   9  1   9
M  SED   9 [#6&h0]
M  SAL  10  1  10
M  SED  10 [#6&h0]
M  SAL  11  1  11
M  SED  11 [#6&h0]
M  SAL  12  1  12
M  SED  12 [#6&h0]
M  SAL  13  1  13
M  SED  13 [#6&h0]
M  SAL  14  1  14
M  SED  14 [#6&h0]
M  SAL  15  1  15
M  SED  15 [#6&h0]
M  SAL  16  1  16
M  SED  16 [#6&h0]
M  SAL  17  1  17
M  SED  17 [#6&h0]
M  SAL  18  1  18
M  SED  18 [#6&h0]
M  SAL  19  1  19
M  SED  19 [#6&h0]
M  SAL  20  1  20
M  SED  20 [#6&h0]
M  SAL  21  1  21
M  SED  21 [#1&h0]
M  SAL  22  1  22
M  SED  22 [#1&h0]
M  SAL  23  1  23
M  SED  23 [#1&h0]
M  SAL  24  1  24
M  SED  24 [#1&h0]
M  SAL  25  1  25
M  SED  25 [#1&h0]
M  SAL  26  1  26
M  SED  26 [#1&h0]
M  SAL  27  1  27
M  SED  27 [#1&h0]
M  SAL  28  1  28
M  SED  28 [#1&h0]
M  SAL  29  1  29
M  SED  29 [#1&h0]
M  SAL  30  1  30
M  SED  30 [#1&h0]
M  SAL  31  1  31
M  SED  31 [#1&h0]
M  SAL  32  1  32
M  SED  32 [#1&h0]
M  SAL  33  1  33
M  SED  33 [#1&h0]
M  SAL  34  1  34
M  SED  34 [#1&h0]
M  SAL  35  1  35
M  SED  35 [#1&h0]
M  SAL  36  1  36
M  SED  36 [#1&h0]
M  SAL  37  1  37
M  SED  37 [#1&h0]
M  END
>  <Activity>  (55) 
0.01

>  <Mapped(file=2032.csv.activities,property=Cached(PUBCHEM_COMPOUND_CID))>  (55) 
100

>  <MatchIndices>  (55) 
25 

>  <PUBCHEM_ATOM_DEF_STEREO_COUNT>  (55) 
0

>  <PUBCHEM_ATOM_UDEF_STEREO_COUNT>  (55) 
1

>  <PUBCHEM_BONDANNOTATIONS>  (55) 
10  14  8
11  15  8
12  16  8
13  17  8
14  19  8
15  19  8
16  18  8
17  18  8
6  8  3
7  10  8
7  11  8
9  12  8
9  13  8

>  <PUBCHEM_BOND_DEF_STEREO_COUNT>  (55) 
0

>  <PUBCHEM_BOND_UDEF_STEREO_COUNT>  (55) 
0

>  <PUBCHEM_CACTVS_COMPLEXITY>  (55) 
377

>  <PUBCHEM_CACTVS_HBOND_ACCEPTOR>  (55) 
4

>  <PUBCHEM_CACTVS_HBOND_DONOR>  (55) 
1

>  <PUBCHEM_CACTVS_ROTATABLE_BOND>  (55) 
5

>  <PUBCHEM_CACTVS_SUBSKEYS>  (55) 
AAADceByMABgAAAAAAAAAAAAAAAAAAAAAAAwYAAAAAAAAAABQAAAHAQQQAAADCjBWASyAYBAAAqAAiBCAHDCABAgCBAIiJgABIgIICKgkRGAIABgkAAIiAcQgIAOAAgAAAAAAAAAEAAAAAAAAAAAAAAAAA==

>  <PUBCHEM_CACTVS_TAUTO_COUNT>  (55) 
1

>  <PUBCHEM_CACTVS_TPSA>  (55) 
79.8

>  <PUBCHEM_COMPONENT_COUNT>  (55) 
1

>  <PUBCHEM_COMPOUND_CANONICALIZED>  (55) 
1

>  <PUBCHEM_COMPOUND_CID>  (55) 
2962951

>  <PUBCHEM_COORDINATE_TYPE>  (55) 
1
5
255

>  <PUBCHEM_EXACT_MASS>  (55) 
307.070071

>  <PUBCHEM_HEAVY_ATOM_COUNT>  (55) 
20

>  <PUBCHEM_ISOTOPIC_ATOM_COUNT>  (55) 
0

>  <PUBCHEM_IUPAC_CAS_NAME>  (55) 
4-(methylthio)-N-(1-phenylethyl)benzenesulfonamide

>  <PUBCHEM_IUPAC_INCHI>  (55) 
InChI=1S/C15H17NO2S2/c1-12(13-6-4-3-5-7-13)16-20(17,18)15-10-8-14(19-2)9-11-15/h3-12,16H,1-2H3

>  <PUBCHEM_IUPAC_INCHIKEY>  (55) 
LHBDFYMNDAITSX-UHFFFAOYSA-N

>  <PUBCHEM_IUPAC_NAME>  (55) 
4-methylsulfanyl-N-(1-phenylethyl)benzenesulfonamide

>  <PUBCHEM_IUPAC_OPENEYE_NAME>  (55) 
4-methylsulfanyl-N-(1-phenylethyl)benzenesulfonamide

>  <PUBCHEM_IUPAC_SYSTEMATIC_NAME>  (55) 
4-methylsulfanyl-N-(1-phenylethyl)benzenesulfonamide

>  <PUBCHEM_IUPAC_TRADITIONAL_NAME>  (55) 
4-(methylthio)-N-(1-phenylethyl)benzenesulfonamide

>  <PUBCHEM_MOLECULAR_FORMULA>  (55) 
C15H17NO2S2

>  <PUBCHEM_MOLECULAR_WEIGHT>  (55) 
307.43098

>  <PUBCHEM_MONOISOTOPIC_WEIGHT>  (55) 
307.070071

>  <PUBCHEM_OPENEYE_CAN_SMILES>  (55) 
CC(C1=CC=CC=C1)NS(=O)(=O)C2=CC=C(C=C2)SC

>  <PUBCHEM_OPENEYE_ISO_SMILES>  (55) 
CC(C1=CC=CC=C1)NS(=O)(=O)C2=CC=C(C=C2)SC

>  <PUBCHEM_TOTAL_CHARGE>  (55) 
0

>  <PUBCHEM_XLOGP3_AA>  (55) 
3.3

$$$$
Largest isolated from Written by BCL::WriteToMDL,225584
     RDKit          2D

 34 36  0 34  0  0  0  0  0  0999 V2000
   -0.9472   -0.4003    0.0000 S   0  0  0  0  0  0  0  0  0  0  0  0
   -1.3979   -1.8310    0.0000 O   0  0  0  0  0  0  0  0  0  0  0  0
   -0.6742    1.0746    0.0000 O   0  0  0  0  0  0  0  0  0  0  0  0
    0.5278   -0.6733    0.0000 N   0  0  0  0  0  0  0  0  0  0  0  0
    1.0288   -2.0872    0.0000 C   0  0  0  0  0  0  0  0  0  0  0  0
    2.5038   -2.3602    0.0000 C   0  0  0  0  0  0  0  0  0  0  0  0
    3.4777   -1.2193    0.0000 C   0  0  0  0  0  0  0  0  0  0  0  0
    1.5017    0.4675    0.0000 C   0  0  0  0  0  0  0  0  0  0  0  0
    2.9766    0.1945    0.0000 C   0  0  0  0  0  0  0  0  0  0  0  0
    1.0006    1.8813    0.0000 C   0  0  0  0  0  0  0  0  0  0  0  0
    3.9505    1.3354    0.0000 C   0  0  0  0  0  0  0  0  0  0  0  0
   -2.4221   -0.1274    0.0000 C   0  0  0  0  0  0  0  0  0  0  0  0
    1.9745    3.0222    0.0000 C   0  0  0  0  0  0  0  0  0  0  0  0
    3.4495    2.7492    0.0000 C   0  0  0  0  0  0  0  0  0  0  0  0
   -3.3960   -1.2682    0.0000 C   0  0  0  0  0  0  0  0  0  0  0  0
   -2.9232    1.2865    0.0000 C   0  0  0  0  0  0  0  0  0  0  0  0
   -4.8710   -0.9952    0.0000 C   0  0  0  0  0  0  0  0  0  0  0  0
   -4.3981    1.5595    0.0000 C   0  0  0  0  0  0  0  0  0  0  0  0
   -5.3720    0.4186    0.0000 C   0  0  0  0  0  0  0  0  0  0  0  0
    1.0161   -3.5871    0.0000 H   0  0  0  0  0  0  0  0  0  0  0  0
   -0.4093   -2.5136    0.0000 H   0  0  0  0  0  0  0  0  0  0  0  0
    3.7964   -3.1212    0.0000 H   0  0  0  0  0  0  0  0  0  0  0  0
    1.9788   -3.7653    0.0000 H   0  0  0  0  0  0  0  0  0  0  0  0
    4.7830   -0.4804    0.0000 H   0  0  0  0  0  0  0  0  0  0  0  0
    4.4321   -2.3765    0.0000 H   0  0  0  0  0  0  0  0  0  0  0  0
   -0.4743    2.1543    0.0000 H   0  0  0  0  0  0  0  0  0  0  0  0
    5.4255    1.0624    0.0000 H   0  0  0  0  0  0  0  0  0  0  0  0
    1.4735    4.4360    0.0000 H   0  0  0  0  0  0  0  0  0  0  0  0
    4.4234    3.8900    0.0000 H   0  0  0  0  0  0  0  0  0  0  0  0
   -2.8949   -2.6820    0.0000 H   0  0  0  0  0  0  0  0  0  0  0  0
   -1.9493    2.4273    0.0000 H   0  0  0  0  0  0  0  0  0  0  0  0
   -5.8448   -2.1361    0.0000 H   0  0  0  0  0  0  0  0  0  0  0  0
   -4.8992    2.9733    0.0000 H   0  0  0  0  0  0  0  0  0  0  0  0
   -6.8470    0.6916    0.0000 H   0  0  0  0  0  0  0  0  0  0  0  0
  1  2  2  0
  1  3  2  0
  1  4  1  0
  1 12  1  0
  4  5  1  0
  4  8  1  0
  5  6  1  0
  5 20  1  0
  5 21  1  0
  6  7  1  0
  6 22  1  0
  6 23  1  0
  7  9  1  0
  7 24  1  0
  7 25  1  0
  8  9  2  0
  8 10  1  0
  9 11  1  0
 10 13  2  0
 10 26  1  0
 11 14  2  0
 11 27  1  0
 12 15  2  0
 12 16  1  0
 13 14  1  0
 13 28  1  0
 14 29  1  0
 15 17  1  0
 15 30  1  0
 16 18  2  0
 16 31  1  0
 17 19  2  0
 17 32  1  0
 18 19  1  0
 18 33  1  0
 19 34  1  0
M  STY  8   1 DAT   2 DAT   3 DAT   4 DAT   5 DAT   6 DAT   7 DAT   8 DAT
M  STY  8   9 DAT  10 DAT  11 DAT  12 DAT  13 DAT  14 DAT  15 DAT  16 DAT
M  STY  8  17 DAT  18 DAT  19 DAT  20 DAT  21 DAT  22 DAT  23 DAT  24 DAT
M  STY  8  25 DAT  26 DAT  27 DAT  28 DAT  29 DAT  30 DAT  31 DAT  32 DAT
M  STY  2  33 DAT  34 DAT
M  SAL   1  1   1
M  SED   1 [#16&h0]
M  SAL   2  1   2
M  SED   2 [#8&h0]
M  SAL   3  1   3
M  SED   3 [#8&h0]
M  SAL   4  1   4
M  SED   4 [#7&h0]
M  SAL   5  1   5
M  SED   5 [#6&h0]
M  SAL   6  1   6
M  SED   6 [#6&h0]
M  SAL   7  1   7
M  SED   7 [#6&h0]
M  SAL   8  1   8
M  SED   8 [#6&h0]
M  SAL   9  1   9
M  SED   9 [#6&h0]
M  SAL  10  1  10
M  SED  10 [#6&h0]
M  SAL  11  1  11
M  SED  11 [#6&h0]
M  SAL  12  1  12
M  SED  12 [#6&h0]
M  SAL  13  1  13
M  SED  13 [#6&h0]
M  SAL  14  1  14
M  SED  14 [#6&h0]
M  SAL  15  1  15
M  SED  15 [#6&h0]
M  SAL  16  1  16
M  SED  16 [#6&h0]
M  SAL  17  1  17
M  SED  17 [#6&h0]
M  SAL  18  1  18
M  SED  18 [#6&h0]
M  SAL  19  1  19
M  SED  19 [#6&h0]
M  SAL  20  1  20
M  SED  20 [#1&h0]
M  SAL  21  1  21
M  SED  21 [#1&h0]
M  SAL  22  1  22
M  SED  22 [#1&h0]
M  SAL  23  1  23
M  SED  23 [#1&h0]
M  SAL  24  1  24
M  SED  24 [#1&h0]
M  SAL  25  1  25
M  SED  25 [#1&h0]
M  SAL  26  1  26
M  SED  26 [#1&h0]
M  SAL  27  1  27
M  SED  27 [#1&h0]
M  SAL  28  1  28
M  SED  28 [#1&h0]
M  SAL  29  1  29
M  SED  29 [#1&h0]
M  SAL  30  1  30
M  SED  30 [#1&h0]
M  SAL  31  1  31
M  SED  31 [#1&h0]
M  SAL  32  1  32
M  SED  32 [#1&h0]
M  SAL  33  1  33
M  SED  33 [#1&h0]
M  SAL  34  1  34
M  SED  34 [#1&h0]
M  END
>  <Activity>  (56) 
0.01

>  <Mapped(file=2032.csv.activities,property=Cached(PUBCHEM_COMPOUND_CID))>  (56) 
100

>  <MatchIndices>  (56) 
147 

>  <PUBCHEM_ATOM_DEF_STEREO_COUNT>  (56) 
0

>  <PUBCHEM_ATOM_UDEF_STEREO_COUNT>  (56) 
0

>  <PUBCHEM_BONDANNOTATIONS>  (56) 
10  13  8
11  14  8
12  15  8
12  16  8
13  14  8
15  17  8
16  18  8
17  19  8
18  19  8
8  10  8
8  9  8
9  11  8

>  <PUBCHEM_BOND_DEF_STEREO_COUNT>  (56) 
0

>  <PUBCHEM_BOND_UDEF_STEREO_COUNT>  (56) 
0

>  <PUBCHEM_CACTVS_COMPLEXITY>  (56) 
395

>  <PUBCHEM_CACTVS_HBOND_ACCEPTOR>  (56) 
3

>  <PUBCHEM_CACTVS_HBOND_DONOR>  (56) 
0

>  <PUBCHEM_CACTVS_ROTATABLE_BOND>  (56) 
2

>  <PUBCHEM_CACTVS_SUBSKEYS>  (56) 
AAADccByMABAAAAAAAAAAAAAAAAAAAAAAAA8YIAAAAAAAACxQAAAHAQAQAAADAjBWAQwwYIAAAKAAiRCQHDCABAhAgAIiBgIZIgIICLAkZGEIAhggADIyAcQgIAOAAAAAAACAAAAAAAAAAQAAAAAAAAAAA==

>  <PUBCHEM_CACTVS_TAUTO_COUNT>  (56) 
1

>  <PUBCHEM_CACTVS_TPSA>  (56) 
45.8

>  <PUBCHEM_COMPONENT_COUNT>  (56) 
1

>  <PUBCHEM_COMPOUND_CANONICALIZED>  (56) 
1

>  <PUBCHEM_COMPOUND_CID>  (56) 
225584

>  <PUBCHEM_COORDINATE_TYPE>  (56) 
1
5
255

>  <PUBCHEM_EXACT_MASS>  (56) 
273.08235

>  <PUBCHEM_HEAVY_ATOM_COUNT>  (56) 
19

>  <PUBCHEM_ISOTOPIC_ATOM_COUNT>  (56) 
0

>  <PUBCHEM_IUPAC_CAS_NAME>  (56) 
1-(benzenesulfonyl)-3,4-dihydro-2H-quinoline

>  <PUBCHEM_IUPAC_INCHI>  (56) 
InChI=1S/C15H15NO2S/c17-19(18,14-9-2-1-3-10-14)16-12-6-8-13-7-4-5-11-15(13)16/h1-5,7,9-11H,6,8,12H2

>  <PUBCHEM_IUPAC_INCHIKEY>  (56) 
GPSUPBMZQAGMSS-UHFFFAOYSA-N

>  <PUBCHEM_IUPAC_NAME>  (56) 
1-(benzenesulfonyl)-3,4-dihydro-2H-quinoline

>  <PUBCHEM_IUPAC_OPENEYE_NAME>  (56) 
1-(benzenesulfonyl)-3,4-dihydro-2H-quinoline

>  <PUBCHEM_IUPAC_SYSTEMATIC_NAME>  (56) 
1-(phenylsulfonyl)-3,4-dihydro-2H-quinoline

>  <PUBCHEM_IUPAC_TRADITIONAL_NAME>  (56) 
1-besyl-3,4-dihydro-2H-quinoline

>  <PUBCHEM_MOLECULAR_FORMULA>  (56) 
C15H15NO2S

>  <PUBCHEM_MOLECULAR_WEIGHT>  (56) 
273.3501

>  <PUBCHEM_MONOISOTOPIC_WEIGHT>  (56) 
273.08235

>  <PUBCHEM_OPENEYE_CAN_SMILES>  (56) 
C1CC2=CC=CC=C2N(C1)S(=O)(=O)C3=CC=CC=C3

>  <PUBCHEM_OPENEYE_ISO_SMILES>  (56) 
C1CC2=CC=CC=C2N(C1)S(=O)(=O)C3=CC=CC=C3

>  <PUBCHEM_TOTAL_CHARGE>  (56) 
0

>  <PUBCHEM_XLOGP3_AA>  (56) 
3

$$$$
Largest isolated from Written by BCL::WriteToMDL,70865
     RDKit          2D

 42 44  0 42  0  0  0  0  0  0999 V2000
    1.3122   -0.0085    0.0000 N   0  0  0  0  0  0  0  0  0  0  0  0
   -2.8337    0.9694    0.0000 N   0  0  0  0  0  0  0  0  0  0  0  0
   -1.6878    0.0014    0.0000 C   0  0  0  0  0  0  0  0  0  0  0  0
   -0.9421   -1.3001    0.0000 C   0  0  0  0  0  0  0  0  0  0  0  0
   -0.9335    1.2980    0.0000 C   0  0  0  0  0  0  0  0  0  0  0  0
    0.5579   -1.3050    0.0000 C   0  0  0  0  0  0  0  0  0  0  0  0
    0.5665    1.2930    0.0000 C   0  0  0  0  0  0  0  0  0  0  0  0
    2.8122   -0.0134    0.0000 C   0  0  0  0  0  0  0  0  0  0  0  0
    4.3122   -0.0184    0.0000 C   0  0  0  0  0  0  0  0  0  0  0  0
   -4.2449    0.4610    0.0000 C   0  0  0  0  0  0  0  0  0  0  0  0
    5.0579   -1.3199    0.0000 C   0  0  0  0  0  0  0  0  0  0  0  0
    5.0664    1.2782    0.0000 C   0  0  0  0  0  0  0  0  0  0  0  0
   -4.5103   -1.0153    0.0000 C   0  0  0  0  0  0  0  0  0  0  0  0
   -5.3908    1.4290    0.0000 C   0  0  0  0  0  0  0  0  0  0  0  0
    6.5579   -1.3249    0.0000 C   0  0  0  0  0  0  0  0  0  0  0  0
    6.5664    1.2732    0.0000 C   0  0  0  0  0  0  0  0  0  0  0  0
   -5.9215   -1.5237    0.0000 C   0  0  0  0  0  0  0  0  0  0  0  0
   -6.8020    0.9206    0.0000 C   0  0  0  0  0  0  0  0  0  0  0  0
    7.3121   -0.0283    0.0000 C   0  0  0  0  0  0  0  0  0  0  0  0
   -7.0674   -0.5557    0.0000 C   0  0  0  0  0  0  0  0  0  0  0  0
   -2.8401   -0.9589    0.0000 H   0  0  0  0  0  0  0  0  0  0  0  0
   -0.6865   -2.7781    0.0000 H   0  0  0  0  0  0  0  0  0  0  0  0
   -2.3533   -1.8084    0.0000 H   0  0  0  0  0  0  0  0  0  0  0  0
   -1.8089    1.7477    0.0000 H   0  0  0  0  0  0  0  0  0  0  0  0
   -0.6682    2.7743    0.0000 H   0  0  0  0  0  0  0  0  0  0  0  0
    1.8921   -1.9905    0.0000 H   0  0  0  0  0  0  0  0  0  0  0  0
    0.2925   -2.7814    0.0000 H   0  0  0  0  0  0  0  0  0  0  0  0
    0.3109    2.7711    0.0000 H   0  0  0  0  0  0  0  0  0  0  0  0
    1.9052    1.9696    0.0000 H   0  0  0  0  0  0  0  0  0  0  0  0
    2.9901   -1.5028    0.0000 H   0  0  0  0  0  0  0  0  0  0  0  0
    2.9999    1.4748    0.0000 H   0  0  0  0  0  0  0  0  0  0  0  0
   -2.7790    1.9520    0.0000 H   0  0  0  0  0  0  0  0  0  0  0  0
    4.3036   -2.6165    0.0000 H   0  0  0  0  0  0  0  0  0  0  0  0
    4.3207    2.5797    0.0000 H   0  0  0  0  0  0  0  0  0  0  0  0
   -3.3644   -1.9833    0.0000 H   0  0  0  0  0  0  0  0  0  0  0  0
   -5.1254    2.9054    0.0000 H   0  0  0  0  0  0  0  0  0  0  0  0
    7.3036   -2.6264    0.0000 H   0  0  0  0  0  0  0  0  0  0  0  0
    7.3207    2.5698    0.0000 H   0  0  0  0  0  0  0  0  0  0  0  0
   -6.1868   -3.0000    0.0000 H   0  0  0  0  0  0  0  0  0  0  0  0
   -7.9479    1.8886    0.0000 H   0  0  0  0  0  0  0  0  0  0  0  0
    8.8121   -0.0333    0.0000 H   0  0  0  0  0  0  0  0  0  0  0  0
   -8.4786   -1.0641    0.0000 H   0  0  0  0  0  0  0  0  0  0  0  0
  1  6  1  0
  1  7  1  0
  1  8  1  0
  2  3  1  0
  2 10  1  0
  2 32  1  0
  3  4  1  0
  3  5  1  0
  3 21  1  0
  4  6  1  0
  4 22  1  0
  4 23  1  0
  5  7  1  0
  5 24  1  0
  5 25  1  0
  6 26  1  0
  6 27  1  0
  7 28  1  0
  7 29  1  0
  8  9  1  0
  8 30  1  0
  8 31  1  0
  9 11  2  0
  9 12  1  0
 10 13  2  0
 10 14  1  0
 11 15  1  0
 11 33  1  0
 12 16  2  0
 12 34  1  0
 13 17  1  0
 13 35  1  0
 14 18  2  0
 14 36  1  0
 15 19  2  0
 15 37  1  0
 16 19  1  0
 16 38  1  0
 17 20  2  0
 17 39  1  0
 18 20  1  0
 18 40  1  0
 19 41  1  0
 20 42  1  0
M  STY  8   1 DAT   2 DAT   3 DAT   4 DAT   5 DAT   6 DAT   7 DAT   8 DAT
M  STY  8   9 DAT  10 DAT  11 DAT  12 DAT  13 DAT  14 DAT  15 DAT  16 DAT
M  STY  8  17 DAT  18 DAT  19 DAT  20 DAT  21 DAT  22 DAT  23 DAT  24 DAT
M  STY  8  25 DAT  26 DAT  27 DAT  28 DAT  29 DAT  30 DAT  31 DAT  32 DAT
M  STY  8  33 DAT  34 DAT  35 DAT  36 DAT  37 DAT  38 DAT  39 DAT  40 DAT
M  STY  2  41 DAT  42 DAT
M  SAL   1  1   1
M  SED   1 [#7&h0]
M  SAL   2  1   2
M  SED   2 [#7&h0]
M  SAL   3  1   3
M  SED   3 [#6&h0]
M  SAL   4  1   4
M  SED   4 [#6&h0]
M  SAL   5  1   5
M  SED   5 [#6&h0]
M  SAL   6  1   6
M  SED   6 [#6&h0]
M  SAL   7  1   7
M  SED   7 [#6&h0]
M  SAL   8  1   8
M  SED   8 [#6&h0]
M  SAL   9  1   9
M  SED   9 [#6&h0]
M  SAL  10  1  10
M  SED  10 [#6&h0]
M  SAL  11  1  11
M  SED  11 [#6&h0]
M  SAL  12  1  12
M  SED  12 [#6&h0]
M  SAL  13  1  13
M  SED  13 [#6&h0]
M  SAL  14  1  14
M  SED  14 [#6&h0]
M  SAL  15  1  15
M  SED  15 [#6&h0]
M  SAL  16  1  16
M  SED  16 [#6&h0]
M  SAL  17  1  17
M  SED  17 [#6&h0]
M  SAL  18  1  18
M  SED  18 [#6&h0]
M  SAL  19  1  19
M  SED  19 [#6&h0]
M  SAL  20  1  20
M  SED  20 [#6&h0]
M  SAL  21  1  21
M  SED  21 [#1&h0]
M  SAL  22  1  22
M  SED  22 [#1&h0]
M  SAL  23  1  23
M  SED  23 [#1&h0]
M  SAL  24  1  24
M  SED  24 [#1&h0]
M  SAL  25  1  25
M  SED  25 [#1&h0]
M  SAL  26  1  26
M  SED  26 [#1&h0]
M  SAL  27  1  27
M  SED  27 [#1&h0]
M  SAL  28  1  28
M  SED  28 [#1&h0]
M  SAL  29  1  29
M  SED  29 [#1&h0]
M  SAL  30  1  30
M  SED  30 [#1&h0]
M  SAL  31  1  31
M  SED  31 [#1&h0]
M  SAL  32  1  32
M  SED  32 [#1&h0]
M  SAL  33  1  33
M  SED  33 [#1&h0]
M  SAL  34  1  34
M  SED  34 [#1&h0]
M  SAL  35  1  35
M  SED  35 [#1&h0]
M  SAL  36  1  36
M  SED  36 [#1&h0]
M  SAL  37  1  37
M  SED  37 [#1&h0]
M  SAL  38  1  38
M  SED  38 [#1&h0]
M  SAL  39  1  39
M  SED  39 [#1&h0]
M  SAL  40  1  40
M  SED  40 [#1&h0]
M  SAL  41  1  41
M  SED  41 [#1&h0]
M  SAL  42  1  42
M  SED  42 [#1&h0]
M  END
>  <Activity>  (57) 
0.01

>  <Mapped(file=2032.csv.activities,property=Cached(PUBCHEM_COMPOUND_CID))>  (57) 
100

>  <MatchIndices>  (57) 
44 

>  <PUBCHEM_ATOM_DEF_STEREO_COUNT>  (57) 
0

>  <PUBCHEM_ATOM_UDEF_STEREO_COUNT>  (57) 
0

>  <PUBCHEM_BONDANNOTATIONS>  (57) 
10  13  8
10  14  8
11  15  8
12  16  8
13  17  8
14  18  8
15  19  8
16  19  8
17  20  8
18  20  8
9  11  8
9  12  8

>  <PUBCHEM_BOND_DEF_STEREO_COUNT>  (57) 
0

>  <PUBCHEM_BOND_UDEF_STEREO_COUNT>  (57) 
0

>  <PUBCHEM_CACTVS_COMPLEXITY>  (57) 
259

>  <PUBCHEM_CACTVS_HBOND_ACCEPTOR>  (57) 
2

>  <PUBCHEM_CACTVS_HBOND_DONOR>  (57) 
1

>  <PUBCHEM_CACTVS_ROTATABLE_BOND>  (57) 
4

>  <PUBCHEM_CACTVS_SUBSKEYS>  (57) 
AAADceB7AAAAAAAAAAAAAAAAAAAAAAAAAAA8YIAAAAAAAAABQAAAHAAQAAAADCjBGAQwwIPAAACAAiRCQACCAAAhAgAIiIAIZIgIICLA0ZGEIAhgkADIyAcQgAAOAAAAAAAAAAAAAAAAAAAAAAAAAAAAAA==

>  <PUBCHEM_CACTVS_TAUTO_COUNT>  (57) 
1

>  <PUBCHEM_CACTVS_TPSA>  (57) 
15.3

>  <PUBCHEM_COMPONENT_COUNT>  (57) 
1

>  <PUBCHEM_COMPOUND_CANONICALIZED>  (57) 
1

>  <PUBCHEM_COMPOUND_CID>  (57) 
70865

>  <PUBCHEM_COORDINATE_TYPE>  (57) 
1
5
255

>  <PUBCHEM_EXACT_MASS>  (57) 
266.178299

>  <PUBCHEM_HEAVY_ATOM_COUNT>  (57) 
20

>  <PUBCHEM_ISOTOPIC_ATOM_COUNT>  (57) 
0

>  <PUBCHEM_IUPAC_CAS_NAME>  (57) 
N-phenyl-1-(phenylmethyl)-4-piperidinamine

>  <PUBCHEM_IUPAC_INCHI>  (57) 
InChI=1S/C18H22N2/c1-3-7-16(8-4-1)15-20-13-11-18(12-14-20)19-17-9-5-2-6-10-17/h1-10,18-19H,11-15H2

>  <PUBCHEM_IUPAC_INCHIKEY>  (57) 
FSXGJIFBTBJMHV-UHFFFAOYSA-N

>  <PUBCHEM_IUPAC_NAME>  (57) 
1-benzyl-N-phenylpiperidin-4-amine

>  <PUBCHEM_IUPAC_OPENEYE_NAME>  (57) 
1-benzyl-N-phenyl-piperidin-4-amine

>  <PUBCHEM_IUPAC_SYSTEMATIC_NAME>  (57) 
N-phenyl-1-(phenylmethyl)piperidin-4-amine

>  <PUBCHEM_IUPAC_TRADITIONAL_NAME>  (57) 
(1-benzyl-4-piperidyl)-phenyl-amine

>  <PUBCHEM_MOLECULAR_FORMULA>  (57) 
C18H22N2

>  <PUBCHEM_MOLECULAR_WEIGHT>  (57) 
266.38068

>  <PUBCHEM_MONOISOTOPIC_WEIGHT>  (57) 
266.178299

>  <PUBCHEM_OPENEYE_CAN_SMILES>  (57) 
C1CN(CCC1NC2=CC=CC=C2)CC3=CC=CC=C3

>  <PUBCHEM_OPENEYE_ISO_SMILES>  (57) 
C1CN(CCC1NC2=CC=CC=C2)CC3=CC=CC=C3

>  <PUBCHEM_TOTAL_CHARGE>  (57) 
0

>  <PUBCHEM_XLOGP3_AA>  (57) 
4

$$$$
Largest isolated from Written by BCL::WriteToMDL,3627083
     RDKit          2D

 46 47  0 46  0  0  0  0  0  0999 V2000
    1.3087    0.9543    0.0000 O   0  0  0  0  0  0  0  0  0  0  0  0
   -6.2030   -1.6100    0.0000 O   0  0  0  0  0  0  0  0  0  0  0  0
    2.0411   -2.9462    0.0000 N   0  0  0  0  0  0  0  0  0  0  0  0
   -2.4588   -2.9259    0.0000 N   0  0  0  0  0  0  0  0  0  0  0  0
   -0.9589   -2.9327    0.0000 C   0  0  0  0  0  0  0  0  0  0  0  0
    0.5411   -2.9394    0.0000 C   0  0  0  0  0  0  0  0  0  0  0  0
   -3.2030   -1.6235    0.0000 C   0  0  0  0  0  0  0  0  0  0  0  0
    2.7969   -1.6505    0.0000 C   0  0  0  0  0  0  0  0  0  0  0  0
    3.5528   -0.3549    0.0000 C   0  0  0  0  0  0  0  0  0  0  0  0
   -3.9471   -0.3211    0.0000 C   0  0  0  0  0  0  0  0  0  0  0  0
    5.0528   -0.3616    0.0000 C   0  0  0  0  0  0  0  0  0  0  0  0
   -3.1913    0.9745    0.0000 C   0  0  0  0  0  0  0  0  0  0  0  0
    2.8086    0.9475    0.0000 C   0  0  0  0  0  0  0  0  0  0  0  0
   -5.4471   -0.3144    0.0000 C   0  0  0  0  0  0  0  0  0  0  0  0
    5.8086    0.9340    0.0000 C   0  0  0  0  0  0  0  0  0  0  0  0
   -3.9354    2.2769    0.0000 C   0  0  0  0  0  0  0  0  0  0  0  0
    3.5645    2.2432    0.0000 C   0  0  0  0  0  0  0  0  0  0  0  0
   -6.1913    0.9880    0.0000 C   0  0  0  0  0  0  0  0  0  0  0  0
    5.0645    2.2364    0.0000 C   0  0  0  0  0  0  0  0  0  0  0  0
   -5.4354    2.2837    0.0000 C   0  0  0  0  0  0  0  0  0  0  0  0
   -3.1796    3.5726    0.0000 C   0  0  0  0  0  0  0  0  0  0  0  0
    7.3086    0.9273    0.0000 C   0  0  0  0  0  0  0  0  0  0  0  0
    0.5344   -4.4394    0.0000 H   0  0  0  0  0  0  0  0  0  0  0  0
    0.5479   -1.4394    0.0000 H   0  0  0  0  0  0  0  0  0  0  0  0
   -0.9656   -4.4327    0.0000 H   0  0  0  0  0  0  0  0  0  0  0  0
   -0.9521   -1.4327    0.0000 H   0  0  0  0  0  0  0  0  0  0  0  0
    4.0926   -2.4064    0.0000 H   0  0  0  0  0  0  0  0  0  0  0  0
    1.5013   -0.8947    0.0000 H   0  0  0  0  0  0  0  0  0  0  0  0
   -4.5054   -2.3677    0.0000 H   0  0  0  0  0  0  0  0  0  0  0  0
   -1.9006   -0.8794    0.0000 H   0  0  0  0  0  0  0  0  0  0  0  0
    2.7853   -4.2486    0.0000 H   0  0  0  0  0  0  0  0  0  0  0  0
   -3.2147   -4.2216    0.0000 H   0  0  0  0  0  0  0  0  0  0  0  0
    5.7969   -1.6640    0.0000 H   0  0  0  0  0  0  0  0  0  0  0  0
   -1.6913    0.9678    0.0000 H   0  0  0  0  0  0  0  0  0  0  0  0
    2.8203    3.5456    0.0000 H   0  0  0  0  0  0  0  0  0  0  0  0
   -7.6913    0.9948    0.0000 H   0  0  0  0  0  0  0  0  0  0  0  0
    5.8203    3.5321    0.0000 H   0  0  0  0  0  0  0  0  0  0  0  0
   -6.1796    3.5861    0.0000 H   0  0  0  0  0  0  0  0  0  0  0  0
   -4.4753    4.3284    0.0000 H   0  0  0  0  0  0  0  0  0  0  0  0
   -1.8840    2.8167    0.0000 H   0  0  0  0  0  0  0  0  0  0  0  0
    7.3018   -0.5727    0.0000 H   0  0  0  0  0  0  0  0  0  0  0  0
    7.3153    2.4273    0.0000 H   0  0  0  0  0  0  0  0  0  0  0  0
    8.8086    0.9205    0.0000 H   0  0  0  0  0  0  0  0  0  0  0  0
   -2.4238    4.8682    0.0000 H   0  0  0  0  0  0  0  0  0  0  0  0
    0.5645    2.2567    0.0000 H   0  0  0  0  0  0  0  0  0  0  0  0
   -7.7029   -1.6033    0.0000 H   0  0  0  0  0  0  0  0  0  0  0  0
  1 13  1  0
  1 45  1  0
  2 14  1  0
  2 46  1  0
  3  6  1  0
  3  8  1  0
  3 31  1  0
  4  5  1  0
  4  7  1  0
  4 32  1  0
  5  6  1  0
  5 25  1  0
  5 26  1  0
  6 23  1  0
  6 24  1  0
  7 10  1  0
  7 29  1  0
  7 30  1  0
  8  9  1  0
  8 27  1  0
  8 28  1  0
  9 11  2  0
  9 13  1  0
 10 12  2  0
 10 14  1  0
 11 15  1  0
 11 33  1  0
 12 16  1  0
 12 34  1  0
 13 17  2  0
 14 18  2  0
 15 19  2  0
 15 22  1  0
 16 20  2  0
 16 21  1  0
 17 19  1  0
 17 35  1  0
 18 20  1  0
 18 36  1  0
 19 37  1  0
 20 38  1  0
 21 39  1  0
 21 40  1  0
 21 44  1  0
 22 41  1  0
 22 42  1  0
 22 43  1  0
M  STY  8   1 DAT   2 DAT   3 DAT   4 DAT   5 DAT   6 DAT   7 DAT   8 DAT
M  STY  8   9 DAT  10 DAT  11 DAT  12 DAT  13 DAT  14 DAT  15 DAT  16 DAT
M  STY  8  17 DAT  18 DAT  19 DAT  20 DAT  21 DAT  22 DAT  23 DAT  24 DAT
M  STY  8  25 DAT  26 DAT  27 DAT  28 DAT  29 DAT  30 DAT  31 DAT  32 DAT
M  STY  8  33 DAT  34 DAT  35 DAT  36 DAT  37 DAT  38 DAT  39 DAT  40 DAT
M  STY  6  41 DAT  42 DAT  43 DAT  44 DAT  45 DAT  46 DAT
M  SAL   1  1   1
M  SED   1 [#8&h0]
M  SAL   2  1   2
M  SED   2 [#8&h0]
M  SAL   3  1   3
M  SED   3 [#7&h0]
M  SAL   4  1   4
M  SED   4 [#7&h0]
M  SAL   5  1   5
M  SED   5 [#6&h0]
M  SAL   6  1   6
M  SED   6 [#6&h0]
M  SAL   7  1   7
M  SED   7 [#6&h0]
M  SAL   8  1   8
M  SED   8 [#6&h0]
M  SAL   9  1   9
M  SED   9 [#6&h0]
M  SAL  10  1  10
M  SED  10 [#6&h0]
M  SAL  11  1  11
M  SED  11 [#6&h0]
M  SAL  12  1  12
M  SED  12 [#6&h0]
M  SAL  13  1  13
M  SED  13 [#6&h0]
M  SAL  14  1  14
M  SED  14 [#6&h0]
M  SAL  15  1  15
M  SED  15 [#6&h0]
M  SAL  16  1  16
M  SED  16 [#6&h0]
M  SAL  17  1  17
M  SED  17 [#6&h0]
M  SAL  18  1  18
M  SED  18 [#6&h0]
M  SAL  19  1  19
M  SED  19 [#6&h0]
M  SAL  20  1  20
M  SED  20 [#6&h0]
M  SAL  21  1  21
M  SED  21 [#6&h0]
M  SAL  22  1  22
M  SED  22 [#6&h0]
M  SAL  23  1  23
M  SED  23 [#1&h0]
M  SAL  24  1  24
M  SED  24 [#1&h0]
M  SAL  25  1  25
M  SED  25 [#1&h0]
M  SAL  26  1  26
M  SED  26 [#1&h0]
M  SAL  27  1  27
M  SED  27 [#1&h0]
M  SAL  28  1  28
M  SED  28 [#1&h0]
M  SAL  29  1  29
M  SED  29 [#1&h0]
M  SAL  30  1  30
M  SED  30 [#1&h0]
M  SAL  31  1  31
M  SED  31 [#1&h0]
M  SAL  32  1  32
M  SED  32 [#1&h0]
M  SAL  33  1  33
M  SED  33 [#1&h0]
M  SAL  34  1  34
M  SED  34 [#1&h0]
M  SAL  35  1  35
M  SED  35 [#1&h0]
M  SAL  36  1  36
M  SED  36 [#1&h0]
M  SAL  37  1  37
M  SED  37 [#1&h0]
M  SAL  38  1  38
M  SED  38 [#1&h0]
M  SAL  39  1  39
M  SED  39 [#1&h0]
M  SAL  40  1  40
M  SED  40 [#1&h0]
M  SAL  41  1  41
M  SED  41 [#1&h0]
M  SAL  42  1  42
M  SED  42 [#1&h0]
M  SAL  43  1  43
M  SED  43 [#1&h0]
M  SAL  44  1  44
M  SED  44 [#1&h0]
M  SAL  45  1  45
M  SED  45 [#1&h0]
M  SAL  46  1  46
M  SED  46 [#1&h0]
M  END
>  <Activity>  (58) 
0.01

>  <Mapped(file=2032.csv.activities,property=Cached(PUBCHEM_COMPOUND_CID))>  (58) 
100

>  <MatchIndices>  (58) 
54 

>  <PUBCHEM_ATOM_DEF_STEREO_COUNT>  (58) 
0

>  <PUBCHEM_ATOM_UDEF_STEREO_COUNT>  (58) 
0

>  <PUBCHEM_BONDANNOTATIONS>  (58) 
10  12  8
10  14  8
11  15  8
12  16  8
13  17  8
14  18  8
15  19  8
16  20  8
17  19  8
18  20  8
9  11  8
9  13  8

>  <PUBCHEM_BOND_DEF_STEREO_COUNT>  (58) 
0

>  <PUBCHEM_BOND_UDEF_STEREO_COUNT>  (58) 
0

>  <PUBCHEM_CACTVS_COMPLEXITY>  (58) 
284

>  <PUBCHEM_CACTVS_HBOND_ACCEPTOR>  (58) 
4

>  <PUBCHEM_CACTVS_HBOND_DONOR>  (58) 
4

>  <PUBCHEM_CACTVS_ROTATABLE_BOND>  (58) 
7

>  <PUBCHEM_CACTVS_SUBSKEYS>  (58) 
AAADceB7MAAAAAAAAAAAAAAAAAAAAAAAAAAwYAAAAAAAAAABQAAAHgAQCAAADATBmAQyBoLAAgCAAiBCAACCAAAgIAAIiIAODIgIZiKCkROUcAhm0BGImAeQwGAOIAACAAAIAABAAAQAABAAAAAAAAAAAA==

>  <PUBCHEM_CACTVS_TAUTO_COUNT>  (58) 
5

>  <PUBCHEM_CACTVS_TPSA>  (58) 
64.5

>  <PUBCHEM_COMPONENT_COUNT>  (58) 
1

>  <PUBCHEM_COMPOUND_CANONICALIZED>  (58) 
1

>  <PUBCHEM_COMPOUND_CID>  (58) 
3627083

>  <PUBCHEM_COORDINATE_TYPE>  (58) 
1
5
255

>  <PUBCHEM_EXACT_MASS>  (58) 
300.183778

>  <PUBCHEM_HEAVY_ATOM_COUNT>  (58) 
22

>  <PUBCHEM_ISOTOPIC_ATOM_COUNT>  (58) 
0

>  <PUBCHEM_IUPAC_CAS_NAME>  (58) 
2-[[2-[(2-hydroxy-5-methylphenyl)methylamino]ethylamino]methyl]-4-methylphenol

>  <PUBCHEM_IUPAC_INCHI>  (58) 
InChI=1S/C18H24N2O2/c1-13-3-5-17(21)15(9-13)11-19-7-8-20-12-16-10-14(2)4-6-18(16)22/h3-6,9-10,19-22H,7-8,11-12H2,1-2H3

>  <PUBCHEM_IUPAC_INCHIKEY>  (58) 
FPLZZQVRIKYDDZ-UHFFFAOYSA-N

>  <PUBCHEM_IUPAC_NAME>  (58) 
2-[[2-[(2-hydroxy-5-methylphenyl)methylamino]ethylamino]methyl]-4-methylphenol

>  <PUBCHEM_IUPAC_OPENEYE_NAME>  (58) 
2-[[2-[(2-hydroxy-5-methyl-phenyl)methylamino]ethylamino]methyl]-4-methyl-phenol

>  <PUBCHEM_IUPAC_SYSTEMATIC_NAME>  (58) 
4-methyl-2-[[2-[(5-methyl-2-oxidanyl-phenyl)methylamino]ethylamino]methyl]phenol

>  <PUBCHEM_IUPAC_TRADITIONAL_NAME>  (58) 
2-[[2-[(2-hydroxy-5-methyl-benzyl)amino]ethylamino]methyl]-4-methyl-phenol

>  <PUBCHEM_MOLECULAR_FORMULA>  (58) 
C18H24N2O2

>  <PUBCHEM_MOLECULAR_WEIGHT>  (58) 
300.39536

>  <PUBCHEM_MONOISOTOPIC_WEIGHT>  (58) 
300.183778

>  <PUBCHEM_OPENEYE_CAN_SMILES>  (58) 
CC1=CC(=C(C=C1)O)CNCCNCC2=C(C=CC(=C2)C)O

>  <PUBCHEM_OPENEYE_ISO_SMILES>  (58) 
CC1=CC(=C(C=C1)O)CNCCNCC2=C(C=CC(=C2)C)O

>  <PUBCHEM_TOTAL_CHARGE>  (58) 
0

>  <PUBCHEM_XLOGP3_AA>  (58) 
3.5

$$$$
Largest isolated from Written by BCL::WriteToMDL,17123422
     RDKit          2D

 41 42  0 41  0  0  0  0  0  0999 V2000
   -9.3097   -1.7994    0.0000 Br  0  0  0  0  0  0  0  0  0  0  0  0
    2.4055   -1.7353    0.0000 S   0  0  0  0  0  0  0  0  0  0  0  0
   -2.6060    1.5638    0.0000 N   0  0  0  0  0  0  0  0  0  0  0  0
    4.9992   -1.8874    0.0000 N   0  0  0  0  0  0  0  0  0  0  0  0
    3.8341    0.4348    0.0000 N   0  0  0  0  0  0  0  0  0  0  0  0
   -1.3531    0.7390    0.0000 C   0  0  0  0  0  0  0  0  0  0  0  0
   -0.1002   -0.0857    0.0000 C   0  0  0  0  0  0  0  0  0  0  0  0
   -3.9468    0.8912    0.0000 C   0  0  0  0  0  0  0  0  0  0  0  0
    1.1526   -0.9105    0.0000 C   0  0  0  0  0  0  0  0  0  0  0  0
   -5.2875    0.2185    0.0000 C   0  0  0  0  0  0  0  0  0  0  0  0
   -6.5404    1.0433    0.0000 C   0  0  0  0  0  0  0  0  0  0  0  0
   -5.3753   -1.2789    0.0000 C   0  0  0  0  0  0  0  0  0  0  0  0
    3.7463   -1.0627    0.0000 C   0  0  0  0  0  0  0  0  0  0  0  0
   -7.8811    0.3707    0.0000 C   0  0  0  0  0  0  0  0  0  0  0  0
   -6.7160   -1.9515    0.0000 C   0  0  0  0  0  0  0  0  0  0  0  0
   -7.9689   -1.1268    0.0000 C   0  0  0  0  0  0  0  0  0  0  0  0
    6.3399   -1.2148    0.0000 C   0  0  0  0  0  0  0  0  0  0  0  0
    5.1748    1.1074    0.0000 C   0  0  0  0  0  0  0  0  0  0  0  0
    6.4277    0.2826    0.0000 C   0  0  0  0  0  0  0  0  0  0  0  0
    7.5928   -2.0396    0.0000 C   0  0  0  0  0  0  0  0  0  0  0  0
    5.2627    2.6048    0.0000 C   0  0  0  0  0  0  0  0  0  0  0  0
   -0.5284    1.9919    0.0000 H   0  0  0  0  0  0  0  0  0  0  0  0
   -2.1779   -0.5139    0.0000 H   0  0  0  0  0  0  0  0  0  0  0  0
    0.7245    1.1672    0.0000 H   0  0  0  0  0  0  0  0  0  0  0  0
   -0.9250   -1.3386    0.0000 H   0  0  0  0  0  0  0  0  0  0  0  0
   -4.6194    2.2319    0.0000 H   0  0  0  0  0  0  0  0  0  0  0  0
   -3.2741   -0.4496    0.0000 H   0  0  0  0  0  0  0  0  0  0  0  0
   -2.5182    3.0612    0.0000 H   0  0  0  0  0  0  0  0  0  0  0  0
    0.3279   -2.1634    0.0000 H   0  0  0  0  0  0  0  0  0  0  0  0
    1.9774    0.3424    0.0000 H   0  0  0  0  0  0  0  0  0  0  0  0
   -6.4525    2.5407    0.0000 H   0  0  0  0  0  0  0  0  0  0  0  0
   -4.1224   -2.1037    0.0000 H   0  0  0  0  0  0  0  0  0  0  0  0
   -9.1340    1.1954    0.0000 H   0  0  0  0  0  0  0  0  0  0  0  0
   -6.8039   -3.4490    0.0000 H   0  0  0  0  0  0  0  0  0  0  0  0
    7.7684    0.9553    0.0000 H   0  0  0  0  0  0  0  0  0  0  0  0
    6.7680   -3.2925    0.0000 H   0  0  0  0  0  0  0  0  0  0  0  0
    8.4176   -0.7867    0.0000 H   0  0  0  0  0  0  0  0  0  0  0  0
    8.8457   -2.8644    0.0000 H   0  0  0  0  0  0  0  0  0  0  0  0
    3.7652    2.6927    0.0000 H   0  0  0  0  0  0  0  0  0  0  0  0
    6.7601    2.5170    0.0000 H   0  0  0  0  0  0  0  0  0  0  0  0
    5.3505    4.1023    0.0000 H   0  0  0  0  0  0  0  0  0  0  0  0
  1 16  1  0
  2  9  1  0
  2 13  1  0
  3  6  1  0
  3  8  1  0
  3 28  1  0
  4 13  2  0
  4 17  1  0
  5 13  1  0
  5 18  2  0
  6  7  1  0
  6 22  1  0
  6 23  1  0
  7  9  1  0
  7 24  1  0
  7 25  1  0
  8 10  1  0
  8 26  1  0
  8 27  1  0
  9 29  1  0
  9 30  1  0
 10 11  2  0
 10 12  1  0
 11 14  1  0
 11 31  1  0
 12 15  2  0
 12 32  1  0
 14 16  2  0
 14 33  1  0
 15 16  1  0
 15 34  1  0
 17 19  2  0
 17 20  1  0
 18 19  1  0
 18 21  1  0
 19 35  1  0
 20 36  1  0
 20 37  1  0
 20 38  1  0
 21 39  1  0
 21 40  1  0
 21 41  1  0
M  STY  8   1 DAT   2 DAT   3 DAT   4 DAT   5 DAT   6 DAT   7 DAT   8 DAT
M  STY  8   9 DAT  10 DAT  11 DAT  12 DAT  13 DAT  14 DAT  15 DAT  16 DAT
M  STY  8  17 DAT  18 DAT  19 DAT  20 DAT  21 DAT  22 DAT  23 DAT  24 DAT
M  STY  8  25 DAT  26 DAT  27 DAT  28 DAT  29 DAT  30 DAT  31 DAT  32 DAT
M  STY  8  33 DAT  34 DAT  35 DAT  36 DAT  37 DAT  38 DAT  39 DAT  40 DAT
M  STY  1  41 DAT
M  SAL   1  1   1
M  SED   1 [#35&h0]
M  SAL   2  1   2
M  SED   2 [#16&h0]
M  SAL   3  1   3
M  SED   3 [#7&h0]
M  SAL   4  1   4
M  SED   4 [#7&h0]
M  SAL   5  1   5
M  SED   5 [#7&h0]
M  SAL   6  1   6
M  SED   6 [#6&h0]
M  SAL   7  1   7
M  SED   7 [#6&h0]
M  SAL   8  1   8
M  SED   8 [#6&h0]
M  SAL   9  1   9
M  SED   9 [#6&h0]
M  SAL  10  1  10
M  SED  10 [#6&h0]
M  SAL  11  1  11
M  SED  11 [#6&h0]
M  SAL  12  1  12
M  SED  12 [#6&h0]
M  SAL  13  1  13
M  SED  13 [#6&h0]
M  SAL  14  1  14
M  SED  14 [#6&h0]
M  SAL  15  1  15
M  SED  15 [#6&h0]
M  SAL  16  1  16
M  SED  16 [#6&h0]
M  SAL  17  1  17
M  SED  17 [#6&h0]
M  SAL  18  1  18
M  SED  18 [#6&h0]
M  SAL  19  1  19
M  SED  19 [#6&h0]
M  SAL  20  1  20
M  SED  20 [#6&h0]
M  SAL  21  1  21
M  SED  21 [#6&h0]
M  SAL  22  1  22
M  SED  22 [#1&h0]
M  SAL  23  1  23
M  SED  23 [#1&h0]
M  SAL  24  1  24
M  SED  24 [#1&h0]
M  SAL  25  1  25
M  SED  25 [#1&h0]
M  SAL  26  1  26
M  SED  26 [#1&h0]
M  SAL  27  1  27
M  SED  27 [#1&h0]
M  SAL  28  1  28
M  SED  28 [#1&h0]
M  SAL  29  1  29
M  SED  29 [#1&h0]
M  SAL  30  1  30
M  SED  30 [#1&h0]
M  SAL  31  1  31
M  SED  31 [#1&h0]
M  SAL  32  1  32
M  SED  32 [#1&h0]
M  SAL  33  1  33
M  SED  33 [#1&h0]
M  SAL  34  1  34
M  SED  34 [#1&h0]
M  SAL  35  1  35
M  SED  35 [#1&h0]
M  SAL  36  1  36
M  SED  36 [#1&h0]
M  SAL  37  1  37
M  SED  37 [#1&h0]
M  SAL  38  1  38
M  SED  38 [#1&h0]
M  SAL  39  1  39
M  SED  39 [#1&h0]
M  SAL  40  1  40
M  SED  40 [#1&h0]
M  SAL  41  1  41
M  SED  41 [#1&h0]
M  END
>  <Activity>  (59) 
0.01

>  <Mapped(file=2032.csv.activities,property=Cached(PUBCHEM_COMPOUND_CID))>  (59) 
100

>  <MatchIndices>  (59) 
69 

>  <PUBCHEM_ATOM_DEF_STEREO_COUNT>  (59) 
0

>  <PUBCHEM_ATOM_UDEF_STEREO_COUNT>  (59) 
0

>  <PUBCHEM_BONDANNOTATIONS>  (59) 
11  12  8
11  13  8
12  15  8
13  16  8
15  17  8
16  17  8
18  20  8
19  20  8
5  14  8
5  18  8
6  14  8
6  19  8

>  <PUBCHEM_BOND_DEF_STEREO_COUNT>  (59) 
0

>  <PUBCHEM_BOND_UDEF_STEREO_COUNT>  (59) 
0

>  <PUBCHEM_CACTVS_COMPLEXITY>  (59) 
275

>  <PUBCHEM_CACTVS_HBOND_ACCEPTOR>  (59) 
2

>  <PUBCHEM_CACTVS_HBOND_DONOR>  (59) 
2

>  <PUBCHEM_CACTVS_ROTATABLE_BOND>  (59) 
7

>  <PUBCHEM_CACTVS_SUBSKEYS>  (59) 
AAADceB7AABEEAAAAAAAAAAAAAAAAAAAAAA8QAAAAAAAAAABwAAAHARQAAABrAjFXgSzkJbIEAigAyRiZACC0ClhArQJmKA4ZLiIKCLg2dGEJAhokALIyjcQgAAOAgAAAAAAAAAEAAAAAAAAAAAAAAAAAA==

>  <PUBCHEM_CACTVS_TAUTO_COUNT>  (59) 
1

>  <PUBCHEM_CACTVS_TPSA>  (59) 
63.1

>  <PUBCHEM_COMPONENT_COUNT>  (59) 
2

>  <PUBCHEM_COMPOUND_CANONICALIZED>  (59) 
1

>  <PUBCHEM_COMPOUND_CID>  (59) 
17123422

>  <PUBCHEM_COORDINATE_TYPE>  (59) 
1
5
255

>  <PUBCHEM_EXACT_MASS>  (59) 
401.032808

>  <PUBCHEM_HEAVY_ATOM_COUNT>  (59) 
22

>  <PUBCHEM_ISOTOPIC_ATOM_COUNT>  (59) 
0

>  <PUBCHEM_IUPAC_CAS_NAME>  (59) 
N-[(4-bromophenyl)methyl]-3-[(4,6-dimethyl-2-pyrimidinyl)thio]-1-propanamine hydrochloride

>  <PUBCHEM_IUPAC_INCHI>  (59) 
InChI=1S/C16H20BrN3S.ClH/c1-12-10-13(2)20-16(19-12)21-9-3-8-18-11-14-4-6-15(17)7-5-14;/h4-7,10,18H,3,8-9,11H2,1-2H3;1H

>  <PUBCHEM_IUPAC_INCHIKEY>  (59) 
QKEFFLMPZIFZMS-UHFFFAOYSA-N

>  <PUBCHEM_IUPAC_NAME>  (59) 
N-[(4-bromophenyl)methyl]-3-(4,6-dimethylpyrimidin-2-yl)sulfanylpropan-1-amine hydrochloride

>  <PUBCHEM_IUPAC_OPENEYE_NAME>  (59) 
N-[(4-bromophenyl)methyl]-3-(4,6-dimethylpyrimidin-2-yl)sulfanyl-propan-1-amine hydrochloride

>  <PUBCHEM_IUPAC_SYSTEMATIC_NAME>  (59) 
N-[(4-bromophenyl)methyl]-3-(4,6-dimethylpyrimidin-2-yl)sulfanyl-propan-1-amine hydrochloride

>  <PUBCHEM_IUPAC_TRADITIONAL_NAME>  (59) 
(4-bromobenzyl)-[3-[(4,6-dimethylpyrimidin-2-yl)thio]propyl]amine hydrochloride

>  <PUBCHEM_MOLECULAR_FORMULA>  (59) 
C16H21BrClN3S

>  <PUBCHEM_MOLECULAR_WEIGHT>  (59) 
402.78004

>  <PUBCHEM_MONOISOTOPIC_WEIGHT>  (59) 
401.032808

>  <PUBCHEM_OPENEYE_CAN_SMILES>  (59) 
CC1=CC(=NC(=N1)SCCCNCC2=CC=C(C=C2)Br)C.Cl

>  <PUBCHEM_OPENEYE_ISO_SMILES>  (59) 
CC1=CC(=NC(=N1)SCCCNCC2=CC=C(C=C2)Br)C.Cl

>  <PUBCHEM_TOTAL_CHARGE>  (59) 
0

$$$$
Largest isolated from Written by BCL::WriteToMDL,3027783
     RDKit          2D

 42 43  0 42  0  0  0  0  0  0999 V2000
    0.7220    1.2358    0.0000 O   0  0  0  0  0  0  0  0  0  0  0  0
   -6.6618   -0.0790    0.0000 N   0  0  0  0  0  0  0  0  0  0  0  0
    1.6882    0.0884    0.0000 C   0  0  0  0  0  0  0  0  0  0  0  0
    2.8356    1.0545    0.0000 C   0  0  0  0  0  0  0  0  0  0  0  0
    2.6543   -1.0590    0.0000 C   0  0  0  0  0  0  0  0  0  0  0  0
    2.5726    2.5313    0.0000 C   0  0  0  0  0  0  0  0  0  0  0  0
    2.1436   -2.4694    0.0000 C   0  0  0  0  0  0  0  0  0  0  0  0
    4.2460    0.5439    0.0000 C   0  0  0  0  0  0  0  0  0  0  0  0
    4.1311   -0.7960    0.0000 C   0  0  0  0  0  0  0  0  0  0  0  0
   -0.7547    0.9729    0.0000 C   0  0  0  0  0  0  0  0  0  0  0  0
    3.7200    3.4974    0.0000 C   0  0  0  0  0  0  0  0  0  0  0  0
    3.1098   -3.6169    0.0000 C   0  0  0  0  0  0  0  0  0  0  0  0
    5.3934    1.5100    0.0000 C   0  0  0  0  0  0  0  0  0  0  0  0
    5.0972   -1.9435    0.0000 C   0  0  0  0  0  0  0  0  0  0  0  0
    5.1304    2.9868    0.0000 C   0  0  0  0  0  0  0  0  0  0  0  0
    4.5865   -3.3539    0.0000 C   0  0  0  0  0  0  0  0  0  0  0  0
   -5.1850    0.1839    0.0000 C   0  0  0  0  0  0  0  0  0  0  0  0
   -2.2315    0.7099    0.0000 C   0  0  0  0  0  0  0  0  0  0  0  0
   -3.7083    0.4469    0.0000 C   0  0  0  0  0  0  0  0  0  0  0  0
   -7.6279    1.0684    0.0000 C   0  0  0  0  0  0  0  0  0  0  0  0
   -7.1725   -1.4894    0.0000 C   0  0  0  0  0  0  0  0  0  0  0  0
    0.5407   -0.8777    0.0000 H   0  0  0  0  0  0  0  0  0  0  0  0
    0.6669   -2.7324    0.0000 H   0  0  0  0  0  0  0  0  0  0  0  0
    1.1622    3.0419    0.0000 H   0  0  0  0  0  0  0  0  0  0  0  0
    4.5757   -0.1344    0.0000 H   0  0  0  0  0  0  0  0  0  0  0  0
    4.8585   -0.8254    0.0000 H   0  0  0  0  0  0  0  0  0  0  0  0
   -1.0177    2.4496    0.0000 H   0  0  0  0  0  0  0  0  0  0  0  0
   -0.4918   -0.5039    0.0000 H   0  0  0  0  0  0  0  0  0  0  0  0
    2.5991   -5.0273    0.0000 H   0  0  0  0  0  0  0  0  0  0  0  0
    3.4571    4.9742    0.0000 H   0  0  0  0  0  0  0  0  0  0  0  0
    6.5739   -1.6805    0.0000 H   0  0  0  0  0  0  0  0  0  0  0  0
    6.8038    0.9994    0.0000 H   0  0  0  0  0  0  0  0  0  0  0  0
    6.2779    3.9529    0.0000 H   0  0  0  0  0  0  0  0  0  0  0  0
    5.5527   -4.5013    0.0000 H   0  0  0  0  0  0  0  0  0  0  0  0
   -5.4480    1.6607    0.0000 H   0  0  0  0  0  0  0  0  0  0  0  0
   -4.9221   -1.2928    0.0000 H   0  0  0  0  0  0  0  0  0  0  0  0
   -8.7754    0.1023    0.0000 H   0  0  0  0  0  0  0  0  0  0  0  0
   -8.5829   -0.9788    0.0000 H   0  0  0  0  0  0  0  0  0  0  0  0
   -5.7620   -2.0001    0.0000 H   0  0  0  0  0  0  0  0  0  0  0  0
   -7.6831   -2.8998    0.0000 H   0  0  0  0  0  0  0  0  0  0  0  0
   -6.4805    2.0345    0.0000 H   0  0  0  0  0  0  0  0  0  0  0  0
   -8.5941    2.2158    0.0000 H   0  0  0  0  0  0  0  0  0  0  0  0
  1  3  1  0
  1 10  1  0
  2 17  1  0
  2 20  1  0
  2 21  1  0
  3  4  1  0
  3  5  1  0
  3 22  1  0
  4  6  2  0
  4  8  1  0
  5  7  2  0
  5  9  1  0
  6 11  1  0
  6 24  1  0
  7 12  1  0
  7 23  1  0
  8 13  2  0
  8 26  1  0
  9 14  2  0
  9 25  1  0
 10 18  1  0
 10 27  1  0
 10 28  1  0
 11 15  2  0
 11 30  1  0
 12 16  2  0
 12 29  1  0
 13 15  1  0
 13 32  1  0
 14 16  1  0
 14 31  1  0
 15 33  1  0
 16 34  1  0
 17 19  1  0
 17 35  1  0
 17 36  1  0
 18 19  3  0
 20 37  1  0
 20 41  1  0
 20 42  1  0
 21 38  1  0
 21 39  1  0
 21 40  1  0
M  STY  8   1 DAT   2 DAT   3 DAT   4 DAT   5 DAT   6 DAT   7 DAT   8 DAT
M  STY  8   9 DAT  10 DAT  11 DAT  12 DAT  13 DAT  14 DAT  15 DAT  16 DAT
M  STY  8  17 DAT  18 DAT  19 DAT  20 DAT  21 DAT  22 DAT  23 DAT  24 DAT
M  STY  8  25 DAT  26 DAT  27 DAT  28 DAT  29 DAT  30 DAT  31 DAT  32 DAT
M  STY  8  33 DAT  34 DAT  35 DAT  36 DAT  37 DAT  38 DAT  39 DAT  40 DAT
M  STY  2  41 DAT  42 DAT
M  SAL   1  1   1
M  SED   1 [#8&h0]
M  SAL   2  1   2
M  SED   2 [#7&h0]
M  SAL   3  1   3
M  SED   3 [#6&h0]
M  SAL   4  1   4
M  SED   4 [#6&h0]
M  SAL   5  1   5
M  SED   5 [#6&h0]
M  SAL   6  1   6
M  SED   6 [#6&h0]
M  SAL   7  1   7
M  SED   7 [#6&h0]
M  SAL   8  1   8
M  SED   8 [#6&h0]
M  SAL   9  1   9
M  SED   9 [#6&h0]
M  SAL  10  1  10
M  SED  10 [#6&h0]
M  SAL  11  1  11
M  SED  11 [#6&h0]
M  SAL  12  1  12
M  SED  12 [#6&h0]
M  SAL  13  1  13
M  SED  13 [#6&h0]
M  SAL  14  1  14
M  SED  14 [#6&h0]
M  SAL  15  1  15
M  SED  15 [#6&h0]
M  SAL  16  1  16
M  SED  16 [#6&h0]
M  SAL  17  1  17
M  SED  17 [#6&h0]
M  SAL  18  1  18
M  SED  18 [#6&h0]
M  SAL  19  1  19
M  SED  19 [#6&h0]
M  SAL  20  1  20
M  SED  20 [#6&h0]
M  SAL  21  1  21
M  SED  21 [#6&h0]
M  SAL  22  1  22
M  SED  22 [#1&h0]
M  SAL  23  1  23
M  SED  23 [#1&h0]
M  SAL  24  1  24
M  SED  24 [#1&h0]
M  SAL  25  1  25
M  SED  25 [#1&h0]
M  SAL  26  1  26
M  SED  26 [#1&h0]
M  SAL  27  1  27
M  SED  27 [#1&h0]
M  SAL  28  1  28
M  SED  28 [#1&h0]
M  SAL  29  1  29
M  SED  29 [#1&h0]
M  SAL  30  1  30
M  SED  30 [#1&h0]
M  SAL  31  1  31
M  SED  31 [#1&h0]
M  SAL  32  1  32
M  SED  32 [#1&h0]
M  SAL  33  1  33
M  SED  33 [#1&h0]
M  SAL  34  1  34
M  SED  34 [#1&h0]
M  SAL  35  1  35
M  SED  35 [#1&h0]
M  SAL  36  1  36
M  SED  36 [#1&h0]
M  SAL  37  1  37
M  SED  37 [#1&h0]
M  SAL  38  1  38
M  SED  38 [#1&h0]
M  SAL  39  1  39
M  SED  39 [#1&h0]
M  SAL  40  1  40
M  SED  40 [#1&h0]
M  SAL  41  1  41
M  SED  41 [#1&h0]
M  SAL  42  1  42
M  SED  42 [#1&h0]
M  END
>  <Activity>  (60) 
0.01

>  <Mapped(file=2032.csv.activities,property=Cached(PUBCHEM_COMPOUND_CID))>  (60) 
100

>  <MatchIndices>  (60) 
70 

>  <PUBCHEM_ATOM_DEF_STEREO_COUNT>  (60) 
0

>  <PUBCHEM_ATOM_UDEF_STEREO_COUNT>  (60) 
0

>  <PUBCHEM_BONDANNOTATIONS>  (60) 
10  15  8
12  16  8
13  17  8
14  16  8
15  17  8
5  7  8
5  9  8
6  10  8
6  8  8
7  12  8
8  13  8
9  14  8

>  <PUBCHEM_BOND_DEF_STEREO_COUNT>  (60) 
0

>  <PUBCHEM_BOND_UDEF_STEREO_COUNT>  (60) 
0

>  <PUBCHEM_CACTVS_COMPLEXITY>  (60) 
321

>  <PUBCHEM_CACTVS_HBOND_ACCEPTOR>  (60) 
2

>  <PUBCHEM_CACTVS_HBOND_DONOR>  (60) 
1

>  <PUBCHEM_CACTVS_ROTATABLE_BOND>  (60) 
5

>  <PUBCHEM_CACTVS_SUBSKEYS>  (60) 
AAADceB6IAAEAAAAAAAAAAAAAAAAAAAAAAAwYAAAAAAAAAABQAAAHgAAAAAADBThmAYyAIMABADAEiBCAAACAAAgAAAIiAAICIgIJiKAMRiCMAAkwAEIqAeAwOAOAAAAAAAAAAAAAAAAAAAAAAAAAAAAAA==

>  <PUBCHEM_CACTVS_TAUTO_COUNT>  (60) 
1

>  <PUBCHEM_CACTVS_TPSA>  (60) 
12.5

>  <PUBCHEM_COMPONENT_COUNT>  (60) 
2

>  <PUBCHEM_COMPOUND_CANONICALIZED>  (60) 
1

>  <PUBCHEM_COMPOUND_CID>  (60) 
3027783

>  <PUBCHEM_COORDINATE_TYPE>  (60) 
1
5
255

>  <PUBCHEM_EXACT_MASS>  (60) 
315.138992

>  <PUBCHEM_HEAVY_ATOM_COUNT>  (60) 
22

>  <PUBCHEM_ISOTOPIC_ATOM_COUNT>  (60) 
0

>  <PUBCHEM_IUPAC_CAS_NAME>  (60) 
4-(diphenylmethyl)oxy-N,N-dimethyl-2-butyn-1-amine hydrochloride

>  <PUBCHEM_IUPAC_INCHI>  (60) 
InChI=1S/C19H21NO.ClH/c1-20(2)15-9-10-16-21-19(17-11-5-3-6-12-17)18-13-7-4-8-14-18;/h3-8,11-14,19H,15-16H2,1-2H3;1H

>  <PUBCHEM_IUPAC_INCHIKEY>  (60) 
LQCCLNWDNYCOLG-UHFFFAOYSA-N

>  <PUBCHEM_IUPAC_NAME>  (60) 
4-benzhydryloxy-N,N-dimethylbut-2-yn-1-amine hydrochloride

>  <PUBCHEM_IUPAC_OPENEYE_NAME>  (60) 
4-benzhydryloxy-N,N-dimethyl-but-2-yn-1-amine hydrochloride

>  <PUBCHEM_IUPAC_SYSTEMATIC_NAME>  (60) 
4-(diphenylmethyl)oxy-N,N-dimethyl-but-2-yn-1-amine hydrochloride

>  <PUBCHEM_IUPAC_TRADITIONAL_NAME>  (60) 
4-benzhydryloxybut-2-ynyl(dimethyl)amine hydrochloride

>  <PUBCHEM_MOLECULAR_FORMULA>  (60) 
C19H22ClNO

>  <PUBCHEM_MOLECULAR_WEIGHT>  (60) 
315.83708

>  <PUBCHEM_MONOISOTOPIC_WEIGHT>  (60) 
315.138992

>  <PUBCHEM_OPENEYE_CAN_SMILES>  (60) 
CN(C)CC#CCOC(C1=CC=CC=C1)C2=CC=CC=C2.Cl

>  <PUBCHEM_OPENEYE_ISO_SMILES>  (60) 
CN(C)CC#CCOC(C1=CC=CC=C1)C2=CC=CC=C2.Cl

>  <PUBCHEM_TOTAL_CHARGE>  (60) 
0

$$$$
Largest isolated from Written by BCL::WriteToMDL,3665884
     RDKit          2D

 29 30  0 29  0  0  0  0  0  0999 V2000
    2.0745   -3.3635    0.0000 Cl  0  0  0  0  0  0  0  0  0  0  0  0
    5.6200    2.1301    0.0000 F   0  0  0  0  0  0  0  0  0  0  0  0
    3.5394    2.5440    0.0000 F   0  0  0  0  0  0  0  0  0  0  0  0
    5.2061    0.0496    0.0000 F   0  0  0  0  0  0  0  0  0  0  0  0
   -3.9495    2.9522    0.0000 O   0  0  0  0  0  0  0  0  0  0  0  0
    0.5330    0.2935    0.0000 N   0  0  0  0  0  0  0  0  0  0  0  0
   -3.1105   -3.7033    0.0000 N   0  0  0  0  0  0  0  0  0  0  0  0
   -0.6161   -2.0366    0.0000 C   0  0  0  0  0  0  0  0  0  0  0  0
   -1.4494   -0.7894    0.0000 C   0  0  0  0  0  0  0  0  0  0  0  0
    0.6311   -1.2033    0.0000 C   0  0  0  0  0  0  0  0  0  0  0  0
    1.9764   -1.8667    0.0000 C   0  0  0  0  0  0  0  0  0  0  0  0
   -2.9462   -0.8875    0.0000 C   0  0  0  0  0  0  0  0  0  0  0  0
   -0.7860    0.5559    0.0000 C   0  0  0  0  0  0  0  0  0  0  0  0
    3.1255    0.4634    0.0000 C   0  0  0  0  0  0  0  0  0  0  0  0
    3.2236   -1.0334    0.0000 C   0  0  0  0  0  0  0  0  0  0  0  0
    1.7802    1.1269    0.0000 C   0  0  0  0  0  0  0  0  0  0  0  0
   -3.7796    0.3597    0.0000 C   0  0  0  0  0  0  0  0  0  0  0  0
   -1.6193    1.8031    0.0000 C   0  0  0  0  0  0  0  0  0  0  0  0
   -3.1161    1.7050    0.0000 C   0  0  0  0  0  0  0  0  0  0  0  0
   -1.8633   -2.8700    0.0000 C   0  0  0  0  0  0  0  0  0  0  0  0
    4.3727    1.2968    0.0000 C   0  0  0  0  0  0  0  0  0  0  0  0
    0.2173   -3.2838    0.0000 H   0  0  0  0  0  0  0  0  0  0  0  0
   -3.6097   -2.2328    0.0000 H   0  0  0  0  0  0  0  0  0  0  0  0
   -0.0268    0.7990    0.0000 H   0  0  0  0  0  0  0  0  0  0  0  0
    4.5689   -1.6968    0.0000 H   0  0  0  0  0  0  0  0  0  0  0  0
    1.6821    2.6237    0.0000 H   0  0  0  0  0  0  0  0  0  0  0  0
   -5.2764    0.2616    0.0000 H   0  0  0  0  0  0  0  0  0  0  0  0
   -0.9559    3.1484    0.0000 H   0  0  0  0  0  0  0  0  0  0  0  0
   -5.4463    2.8541    0.0000 H   0  0  0  0  0  0  0  0  0  0  0  0
  1 11  1  0
  2 21  1  0
  3 21  1  0
  4 21  1  0
  5 19  1  0
  5 29  1  0
  6 10  2  0
  6 16  1  0
  7 20  3  0
  8  9  1  0
  8 10  1  0
  8 20  1  0
  8 22  1  6
  9 12  2  0
  9 13  1  0
 10 11  1  0
 11 15  2  0
 12 17  1  0
 12 23  1  0
 13 18  2  0
 13 24  1  0
 14 15  1  0
 14 16  2  0
 14 21  1  0
 15 25  1  0
 16 26  1  0
 17 19  2  0
 17 27  1  0
 18 19  1  0
 18 28  1  0
M  STY  8   1 DAT   2 DAT   3 DAT   4 DAT   5 DAT   6 DAT   7 DAT   8 DAT
M  STY  8   9 DAT  10 DAT  11 DAT  12 DAT  13 DAT  14 DAT  15 DAT  16 DAT
M  STY  8  17 DAT  18 DAT  19 DAT  20 DAT  21 DAT  22 DAT  23 DAT  24 DAT
M  STY  5  25 DAT  26 DAT  27 DAT  28 DAT  29 DAT
M  SAL   1  1   1
M  SED   1 [#17&h0]
M  SAL   2  1   2
M  SED   2 [#9&h0]
M  SAL   3  1   3
M  SED   3 [#9&h0]
M  SAL   4  1   4
M  SED   4 [#9&h0]
M  SAL   5  1   5
M  SED   5 [#8&h0]
M  SAL   6  1   6
M  SED   6 [#7&h0]
M  SAL   7  1   7
M  SED   7 [#7&h0]
M  SAL   8  1   8
M  SED   8 [#6&h0]
M  SAL   9  1   9
M  SED   9 [#6&h0]
M  SAL  10  1  10
M  SED  10 [#6&h0]
M  SAL  11  1  11
M  SED  11 [#6&h0]
M  SAL  12  1  12
M  SED  12 [#6&h0]
M  SAL  13  1  13
M  SED  13 [#6&h0]
M  SAL  14  1  14
M  SED  14 [#6&h0]
M  SAL  15  1  15
M  SED  15 [#6&h0]
M  SAL  16  1  16
M  SED  16 [#6&h0]
M  SAL  17  1  17
M  SED  17 [#6&h0]
M  SAL  18  1  18
M  SED  18 [#6&h0]
M  SAL  19  1  19
M  SED  19 [#6&h0]
M  SAL  20  1  20
M  SED  20 [#6&h0]
M  SAL  21  1  21
M  SED  21 [#6&h0]
M  SAL  22  1  22
M  SED  22 [#1&h0]
M  SAL  23  1  23
M  SED  23 [#1&h0]
M  SAL  24  1  24
M  SED  24 [#1&h0]
M  SAL  25  1  25
M  SED  25 [#1&h0]
M  SAL  26  1  26
M  SED  26 [#1&h0]
M  SAL  27  1  27
M  SED  27 [#1&h0]
M  SAL  28  1  28
M  SED  28 [#1&h0]
M  SAL  29  1  29
M  SED  29 [#1&h0]
M  END
>  <Activity>  (61) 
0.01

>  <Mapped(file=2032.csv.activities,property=Cached(PUBCHEM_COMPOUND_CID))>  (61) 
100

>  <MatchIndices>  (61) 
47 

>  <PUBCHEM_ATOM_DEF_STEREO_COUNT>  (61) 
0

>  <PUBCHEM_ATOM_UDEF_STEREO_COUNT>  (61) 
1

>  <PUBCHEM_BONDANNOTATIONS>  (61) 
10  11  8
11  15  8
12  17  8
13  18  8
14  15  8
14  16  8
17  19  8
18  19  8
6  10  8
6  16  8
8  20  3
9  12  8
9  13  8

>  <PUBCHEM_BOND_DEF_STEREO_COUNT>  (61) 
0

>  <PUBCHEM_BOND_UDEF_STEREO_COUNT>  (61) 
0

>  <PUBCHEM_CACTVS_COMPLEXITY>  (61) 
401

>  <PUBCHEM_CACTVS_HBOND_ACCEPTOR>  (61) 
6

>  <PUBCHEM_CACTVS_HBOND_DONOR>  (61) 
1

>  <PUBCHEM_CACTVS_ROTATABLE_BOND>  (61) 
2

>  <PUBCHEM_CACTVS_SUBSKEYS>  (61) 
AAADccBzIYAEAAAAAAAAAAAAAAAAAAAAAAA8QAAAAAAAAAABwAAAHwIACAAADQ7BnjQ8hpIIEgCwBzRnRACCgCAxJSAI2CA+TpgIpuLDk5PEcAhkwBHI2A+QwPAOoAAAAAAAAABAAAAAAAAAAAAAAAAAAA==

>  <PUBCHEM_CACTVS_TAUTO_COUNT>  (61) 
4

>  <PUBCHEM_CACTVS_TPSA>  (61) 
56.9

>  <PUBCHEM_COMPONENT_COUNT>  (61) 
1

>  <PUBCHEM_COMPOUND_CANONICALIZED>  (61) 
1

>  <PUBCHEM_COMPOUND_CID>  (61) 
3665884

>  <PUBCHEM_COORDINATE_TYPE>  (61) 
1
5
255

>  <PUBCHEM_EXACT_MASS>  (61) 
312.027725

>  <PUBCHEM_HEAVY_ATOM_COUNT>  (61) 
21

>  <PUBCHEM_ISOTOPIC_ATOM_COUNT>  (61) 
0

>  <PUBCHEM_IUPAC_CAS_NAME>  (61) 
2-[3-chloro-5-(trifluoromethyl)-2-pyridinyl]-2-(4-hydroxyphenyl)acetonitrile

>  <PUBCHEM_IUPAC_INCHI>  (61) 
InChI=1S/C14H8ClF3N2O/c15-12-5-9(14(16,17)18)7-20-13(12)11(6-19)8-1-3-10(21)4-2-8/h1-5,7,11,21H

>  <PUBCHEM_IUPAC_INCHIKEY>  (61) 
UKPOEKIFKHNIOV-UHFFFAOYSA-N

>  <PUBCHEM_IUPAC_NAME>  (61) 
2-[3-chloro-5-(trifluoromethyl)pyridin-2-yl]-2-(4-hydroxyphenyl)acetonitrile

>  <PUBCHEM_IUPAC_OPENEYE_NAME>  (61) 
2-[3-chloro-5-(trifluoromethyl)-2-pyridyl]-2-(4-hydroxyphenyl)acetonitrile

>  <PUBCHEM_IUPAC_SYSTEMATIC_NAME>  (61) 
2-[3-chloranyl-5-(trifluoromethyl)pyridin-2-yl]-2-(4-hydroxyphenyl)ethanenitrile

>  <PUBCHEM_IUPAC_TRADITIONAL_NAME>  (61) 
2-[3-chloro-5-(trifluoromethyl)-2-pyridyl]-2-(4-hydroxyphenyl)acetonitrile

>  <PUBCHEM_MOLECULAR_FORMULA>  (61) 
C14H8ClF3N2O

>  <PUBCHEM_MOLECULAR_WEIGHT>  (61) 
312.67433

>  <PUBCHEM_MONOISOTOPIC_WEIGHT>  (61) 
312.027725

>  <PUBCHEM_OPENEYE_CAN_SMILES>  (61) 
C1=CC(=CC=C1C(C#N)C2=C(C=C(C=N2)C(F)(F)F)Cl)O

>  <PUBCHEM_OPENEYE_ISO_SMILES>  (61) 
C1=CC(=CC=C1C(C#N)C2=C(C=C(C=N2)C(F)(F)F)Cl)O

>  <PUBCHEM_TOTAL_CHARGE>  (61) 
0

>  <PUBCHEM_XLOGP3_AA>  (61) 
3.4

$$$$
Largest isolated from Written by BCL::WriteToMDL,3176404
     RDKit          2D

 45 47  0 45  0  0  0  0  0  0999 V2000
   -0.6064   -1.1489    0.0000 O   0  0  0  0  0  0  0  0  0  0  0  0
    0.5007    2.6622    0.0000 N   0  0  0  0  0  0  0  0  0  0  0  0
   -3.2012   -1.2807    0.0000 N   0  0  0  0  0  0  0  0  0  0  0  0
   -0.7587    1.8472    0.0000 C   0  0  0  0  0  0  0  0  0  0  0  0
   -2.0180    1.0323    0.0000 C   0  0  0  0  0  0  0  0  0  0  0  0
    1.8361    1.9790    0.0000 C   0  0  0  0  0  0  0  0  0  0  0  0
    3.1715    1.2959    0.0000 C   0  0  0  0  0  0  0  0  0  0  0  0
   -4.5366   -0.5976    0.0000 C   0  0  0  0  0  0  0  0  0  0  0  0
   -4.6127    0.9004    0.0000 C   0  0  0  0  0  0  0  0  0  0  0  0
   -3.3534    1.7154    0.0000 C   0  0  0  0  0  0  0  0  0  0  0  0
    4.5069    0.6128    0.0000 C   0  0  0  0  0  0  0  0  0  0  0  0
   -1.9419   -0.4658    0.0000 C   0  0  0  0  0  0  0  0  0  0  0  0
   -5.7959   -1.4126    0.0000 C   0  0  0  0  0  0  0  0  0  0  0  0
   -5.9481    1.5836    0.0000 C   0  0  0  0  0  0  0  0  0  0  0  0
   -7.1313   -0.7295    0.0000 C   0  0  0  0  0  0  0  0  0  0  0  0
    4.5830   -0.8853    0.0000 C   0  0  0  0  0  0  0  0  0  0  0  0
   -7.2074    0.7686    0.0000 C   0  0  0  0  0  0  0  0  0  0  0  0
    5.7662    1.4278    0.0000 C   0  0  0  0  0  0  0  0  0  0  0  0
    5.9184   -1.5684    0.0000 C   0  0  0  0  0  0  0  0  0  0  0  0
   -5.7198   -2.9106    0.0000 C   0  0  0  0  0  0  0  0  0  0  0  0
    7.1016    0.7446    0.0000 C   0  0  0  0  0  0  0  0  0  0  0  0
    7.1778   -0.7534    0.0000 C   0  0  0  0  0  0  0  0  0  0  0  0
    5.9946   -3.0665    0.0000 C   0  0  0  0  0  0  0  0  0  0  0  0
   -1.5736    3.1065    0.0000 H   0  0  0  0  0  0  0  0  0  0  0  0
    0.0563    0.5879    0.0000 H   0  0  0  0  0  0  0  0  0  0  0  0
    2.5192    3.3145    0.0000 H   0  0  0  0  0  0  0  0  0  0  0  0
    1.1530    0.6436    0.0000 H   0  0  0  0  0  0  0  0  0  0  0  0
    2.4884   -0.0395    0.0000 H   0  0  0  0  0  0  0  0  0  0  0  0
    3.8546    2.6313    0.0000 H   0  0  0  0  0  0  0  0  0  0  0  0
    0.4245    4.1602    0.0000 H   0  0  0  0  0  0  0  0  0  0  0  0
   -3.4295    3.2135    0.0000 H   0  0  0  0  0  0  0  0  0  0  0  0
   -3.1251   -2.7788    0.0000 H   0  0  0  0  0  0  0  0  0  0  0  0
   -6.0242    3.0816    0.0000 H   0  0  0  0  0  0  0  0  0  0  0  0
   -8.3906   -1.5444    0.0000 H   0  0  0  0  0  0  0  0  0  0  0  0
    3.3237   -1.7002    0.0000 H   0  0  0  0  0  0  0  0  0  0  0  0
   -8.5428    1.4517    0.0000 H   0  0  0  0  0  0  0  0  0  0  0  0
    5.6901    2.9258    0.0000 H   0  0  0  0  0  0  0  0  0  0  0  0
   -7.2179   -2.9868    0.0000 H   0  0  0  0  0  0  0  0  0  0  0  0
   -4.2217   -2.8345    0.0000 H   0  0  0  0  0  0  0  0  0  0  0  0
   -5.6437   -4.4087    0.0000 H   0  0  0  0  0  0  0  0  0  0  0  0
    8.3610    1.5596    0.0000 H   0  0  0  0  0  0  0  0  0  0  0  0
    8.5132   -1.4366    0.0000 H   0  0  0  0  0  0  0  0  0  0  0  0
    7.4926   -2.9903    0.0000 H   0  0  0  0  0  0  0  0  0  0  0  0
    4.4965   -3.1426    0.0000 H   0  0  0  0  0  0  0  0  0  0  0  0
    6.0707   -4.5645    0.0000 H   0  0  0  0  0  0  0  0  0  0  0  0
  1 12  2  0
  2  4  1  0
  2  6  1  0
  2 30  1  0
  3  8  1  0
  3 12  1  0
  3 32  1  0
  4  5  1  0
  4 24  1  0
  4 25  1  0
  5 10  2  0
  5 12  1  0
  6  7  1  0
  6 26  1  0
  6 27  1  0
  7 11  1  0
  7 28  1  0
  7 29  1  0
  8  9  2  0
  8 13  1  0
  9 10  1  0
  9 14  1  0
 10 31  1  0
 11 16  2  0
 11 18  1  0
 13 15  2  0
 13 20  1  0
 14 17  2  0
 14 33  1  0
 15 17  1  0
 15 34  1  0
 16 19  1  0
 16 35  1  0
 17 36  1  0
 18 21  2  0
 18 37  1  0
 19 22  2  0
 19 23  1  0
 20 38  1  0
 20 39  1  0
 20 40  1  0
 21 22  1  0
 21 41  1  0
 22 42  1  0
 23 43  1  0
 23 44  1  0
 23 45  1  0
M  STY  8   1 DAT   2 DAT   3 DAT   4 DAT   5 DAT   6 DAT   7 DAT   8 DAT
M  STY  8   9 DAT  10 DAT  11 DAT  12 DAT  13 DAT  14 DAT  15 DAT  16 DAT
M  STY  8  17 DAT  18 DAT  19 DAT  20 DAT  21 DAT  22 DAT  23 DAT  24 DAT
M  STY  8  25 DAT  26 DAT  27 DAT  28 DAT  29 DAT  30 DAT  31 DAT  32 DAT
M  STY  8  33 DAT  34 DAT  35 DAT  36 DAT  37 DAT  38 DAT  39 DAT  40 DAT
M  STY  5  41 DAT  42 DAT  43 DAT  44 DAT  45 DAT
M  SAL   1  1   1
M  SED   1 [#8&h0]
M  SAL   2  1   2
M  SED   2 [#7&h0]
M  SAL   3  1   3
M  SED   3 [#7&h0]
M  SAL   4  1   4
M  SED   4 [#6&h0]
M  SAL   5  1   5
M  SED   5 [#6&h0]
M  SAL   6  1   6
M  SED   6 [#6&h0]
M  SAL   7  1   7
M  SED   7 [#6&h0]
M  SAL   8  1   8
M  SED   8 [#6&h0]
M  SAL   9  1   9
M  SED   9 [#6&h0]
M  SAL  10  1  10
M  SED  10 [#6&h0]
M  SAL  11  1  11
M  SED  11 [#6&h0]
M  SAL  12  1  12
M  SED  12 [#6&h0]
M  SAL  13  1  13
M  SED  13 [#6&h0]
M  SAL  14  1  14
M  SED  14 [#6&h0]
M  SAL  15  1  15
M  SED  15 [#6&h0]
M  SAL  16  1  16
M  SED  16 [#6&h0]
M  SAL  17  1  17
M  SED  17 [#6&h0]
M  SAL  18  1  18
M  SED  18 [#6&h0]
M  SAL  19  1  19
M  SED  19 [#6&h0]
M  SAL  20  1  20
M  SED  20 [#6&h0]
M  SAL  21  1  21
M  SED  21 [#6&h0]
M  SAL  22  1  22
M  SED  22 [#6&h0]
M  SAL  23  1  23
M  SED  23 [#6&h0]
M  SAL  24  1  24
M  SED  24 [#1&h0]
M  SAL  25  1  25
M  SED  25 [#1&h0]
M  SAL  26  1  26
M  SED  26 [#1&h0]
M  SAL  27  1  27
M  SED  27 [#1&h0]
M  SAL  28  1  28
M  SED  28 [#1&h0]
M  SAL  29  1  29
M  SED  29 [#1&h0]
M  SAL  30  1  30
M  SED  30 [#1&h0]
M  SAL  31  1  31
M  SED  31 [#1&h0]
M  SAL  32  1  32
M  SED  32 [#1&h0]
M  SAL  33  1  33
M  SED  33 [#1&h0]
M  SAL  34  1  34
M  SED  34 [#1&h0]
M  SAL  35  1  35
M  SED  35 [#1&h0]
M  SAL  36  1  36
M  SED  36 [#1&h0]
M  SAL  37  1  37
M  SED  37 [#1&h0]
M  SAL  38  1  38
M  SED  38 [#1&h0]
M  SAL  39  1  39
M  SED  39 [#1&h0]
M  SAL  40  1  40
M  SED  40 [#1&h0]
M  SAL  41  1  41
M  SED  41 [#1&h0]
M  SAL  42  1  42
M  SED  42 [#1&h0]
M  SAL  43  1  43
M  SED  43 [#1&h0]
M  SAL  44  1  44
M  SED  44 [#1&h0]
M  SAL  45  1  45
M  SED  45 [#1&h0]
M  END
>  <Activity>  (62) 
0.01

>  <Mapped(file=2032.csv.activities,property=Cached(PUBCHEM_COMPOUND_CID))>  (62) 
100

>  <MatchIndices>  (62) 
108 

>  <PUBCHEM_ATOM_DEF_STEREO_COUNT>  (62) 
0

>  <PUBCHEM_ATOM_UDEF_STEREO_COUNT>  (62) 
0

>  <PUBCHEM_BONDANNOTATIONS>  (62) 
11  16  8
11  18  8
13  15  8
14  17  8
15  17  8
16  19  8
18  21  8
19  22  8
21  22  8
3  12  8
3  8  8
5  10  8
5  12  8
8  13  8
8  9  8
9  10  8
9  14  8

>  <PUBCHEM_BOND_DEF_STEREO_COUNT>  (62) 
0

>  <PUBCHEM_BOND_UDEF_STEREO_COUNT>  (62) 
0

>  <PUBCHEM_CACTVS_COMPLEXITY>  (62) 
445

>  <PUBCHEM_CACTVS_HBOND_ACCEPTOR>  (62) 
2

>  <PUBCHEM_CACTVS_HBOND_DONOR>  (62) 
2

>  <PUBCHEM_CACTVS_ROTATABLE_BOND>  (62) 
5

>  <PUBCHEM_CACTVS_SUBSKEYS>  (62) 
AAADceB7IAAAAAAAAAAAAAAAAAAAAAAAAAAwYIAAAAAAAACBQAAAHgAQAAAADAjBmAQywILAAACIAiVSUACCAAAhAAAIiIEIRMgIICrA0ZGEIAhglADIyYcQgMAOAAACAAACAAAAAAQAAAQAAAAAAAAAAA==

>  <PUBCHEM_CACTVS_TAUTO_COUNT>  (62) 
2

>  <PUBCHEM_CACTVS_TPSA>  (62) 
41.1

>  <PUBCHEM_COMPONENT_COUNT>  (62) 
1

>  <PUBCHEM_COMPOUND_CANONICALIZED>  (62) 
1

>  <PUBCHEM_COMPOUND_CID>  (62) 
3176404

>  <PUBCHEM_COORDINATE_TYPE>  (62) 
1
5
255

>  <PUBCHEM_EXACT_MASS>  (62) 
306.173213

>  <PUBCHEM_HEAVY_ATOM_COUNT>  (62) 
23

>  <PUBCHEM_ISOTOPIC_ATOM_COUNT>  (62) 
0

>  <PUBCHEM_IUPAC_CAS_NAME>  (62) 
8-methyl-3-[[2-(3-methylphenyl)ethylamino]methyl]-1H-quinolin-2-one

>  <PUBCHEM_IUPAC_INCHI>  (62) 
InChI=1S/C20H22N2O/c1-14-5-3-7-16(11-14)9-10-21-13-18-12-17-8-4-6-15(2)19(17)22-20(18)23/h3-8,11-12,21H,9-10,13H2,1-2H3,(H,22,23)

>  <PUBCHEM_IUPAC_INCHIKEY>  (62) 
PAUKZWZGQWSTHC-UHFFFAOYSA-N

>  <PUBCHEM_IUPAC_NAME>  (62) 
8-methyl-3-[[2-(3-methylphenyl)ethylamino]methyl]-1H-quinolin-2-one

>  <PUBCHEM_IUPAC_OPENEYE_NAME>  (62) 
8-methyl-3-[[2-(m-tolyl)ethylamino]methyl]-1H-quinolin-2-one

>  <PUBCHEM_IUPAC_SYSTEMATIC_NAME>  (62) 
8-methyl-3-[[2-(3-methylphenyl)ethylamino]methyl]-1H-quinolin-2-one

>  <PUBCHEM_IUPAC_TRADITIONAL_NAME>  (62) 
8-methyl-3-[[2-(m-tolyl)ethylamino]methyl]carbostyril

>  <PUBCHEM_MOLECULAR_FORMULA>  (62) 
C20H22N2O

>  <PUBCHEM_MOLECULAR_WEIGHT>  (62) 
306.40148

>  <PUBCHEM_MONOISOTOPIC_WEIGHT>  (62) 
306.173213

>  <PUBCHEM_OPENEYE_CAN_SMILES>  (62) 
CC1=CC(=CC=C1)CCNCC2=CC3=C(C(=CC=C3)C)NC2=O

>  <PUBCHEM_OPENEYE_ISO_SMILES>  (62) 
CC1=CC(=CC=C1)CCNCC2=CC3=C(C(=CC=C3)C)NC2=O

>  <PUBCHEM_TOTAL_CHARGE>  (62) 
0

>  <PUBCHEM_XLOGP3_AA>  (62) 
3.9

$$$$
Largest isolated from Written by BCL::WriteToMDL,2976153
     RDKit          2D

 40 42  0 40  0  0  0  0  0  0999 V2000
    6.6947   -1.4010    0.0000 Cl  0  0  0  0  0  0  0  0  0  0  0  0
   -4.0335   -5.0281    0.0000 O   0  0  0  0  0  0  0  0  0  0  0  0
   -3.6622   -0.5434    0.0000 N   0  0  0  0  0  0  0  0  0  0  0  0
    1.5163   -0.9722    0.0000 N   0  0  0  0  0  0  0  0  0  0  0  0
   -1.0729   -0.7578    0.0000 N   0  0  0  0  0  0  0  0  0  0  0  0
    0.4073    1.3773    0.0000 N   0  0  0  0  0  0  0  0  0  0  0  0
   -2.1819    1.5917    0.0000 C   0  0  0  0  0  0  0  0  0  0  0  0
   -2.3057    0.0968    0.0000 C   0  0  0  0  0  0  0  0  0  0  0  0
   -0.8254    2.2320    0.0000 C   0  0  0  0  0  0  0  0  0  0  0  0
    0.2836   -0.1175    0.0000 C   0  0  0  0  0  0  0  0  0  0  0  0
    2.8728   -0.3319    0.0000 C   0  0  0  0  0  0  0  0  0  0  0  0
   -3.7859   -2.0383    0.0000 C   0  0  0  0  0  0  0  0  0  0  0  0
    4.1055   -1.1866    0.0000 C   0  0  0  0  0  0  0  0  0  0  0  0
   -3.4146    2.4464    0.0000 C   0  0  0  0  0  0  0  0  0  0  0  0
   -0.7016    3.7269    0.0000 C   0  0  0  0  0  0  0  0  0  0  0  0
    2.9965    1.1629    0.0000 C   0  0  0  0  0  0  0  0  0  0  0  0
   -3.2908    3.9412    0.0000 C   0  0  0  0  0  0  0  0  0  0  0  0
   -1.9343    4.5815    0.0000 C   0  0  0  0  0  0  0  0  0  0  0  0
    5.4620   -0.5463    0.0000 C   0  0  0  0  0  0  0  0  0  0  0  0
   -3.9097   -3.5332    0.0000 C   0  0  0  0  0  0  0  0  0  0  0  0
    3.9817   -2.6815    0.0000 C   0  0  0  0  0  0  0  0  0  0  0  0
    4.3530    1.8032    0.0000 C   0  0  0  0  0  0  0  0  0  0  0  0
    5.5858    0.9486    0.0000 C   0  0  0  0  0  0  0  0  0  0  0  0
   -4.8949    0.3112    0.0000 H   0  0  0  0  0  0  0  0  0  0  0  0
   -5.2808   -1.9145    0.0000 H   0  0  0  0  0  0  0  0  0  0  0  0
   -2.2911   -2.1621    0.0000 H   0  0  0  0  0  0  0  0  0  0  0  0
    1.3925   -2.4671    0.0000 H   0  0  0  0  0  0  0  0  0  0  0  0
   -4.7711    1.8061    0.0000 H   0  0  0  0  0  0  0  0  0  0  0  0
    0.6549    4.3671    0.0000 H   0  0  0  0  0  0  0  0  0  0  0  0
    1.7638    2.0176    0.0000 H   0  0  0  0  0  0  0  0  0  0  0  0
   -4.5236    4.7959    0.0000 H   0  0  0  0  0  0  0  0  0  0  0  0
   -1.8106    6.0764    0.0000 H   0  0  0  0  0  0  0  0  0  0  0  0
   -2.4148   -3.6570    0.0000 H   0  0  0  0  0  0  0  0  0  0  0  0
   -5.4046   -3.4094    0.0000 H   0  0  0  0  0  0  0  0  0  0  0  0
    5.4766   -2.8052    0.0000 H   0  0  0  0  0  0  0  0  0  0  0  0
    2.4868   -2.5577    0.0000 H   0  0  0  0  0  0  0  0  0  0  0  0
    3.8579   -4.1763    0.0000 H   0  0  0  0  0  0  0  0  0  0  0  0
    4.4768    3.2981    0.0000 H   0  0  0  0  0  0  0  0  0  0  0  0
    6.9423    1.5888    0.0000 H   0  0  0  0  0  0  0  0  0  0  0  0
   -2.8008   -5.8827    0.0000 H   0  0  0  0  0  0  0  0  0  0  0  0
  1 19  1  0
  2 20  1  0
  2 40  1  0
  3  8  1  0
  3 12  1  0
  3 24  1  0
  4 10  1  0
  4 11  1  0
  4 27  1  0
  5  8  2  0
  5 10  1  0
  6  9  1  0
  6 10  2  0
  7  8  1  0
  7  9  2  0
  7 14  1  0
  9 15  1  0
 11 13  2  0
 11 16  1  0
 12 20  1  0
 12 25  1  0
 12 26  1  0
 13 19  1  0
 13 21  1  0
 14 17  2  0
 14 28  1  0
 15 18  2  0
 15 29  1  0
 16 22  2  0
 16 30  1  0
 17 18  1  0
 17 31  1  0
 18 32  1  0
 19 23  2  0
 20 33  1  0
 20 34  1  0
 21 35  1  0
 21 36  1  0
 21 37  1  0
 22 23  1  0
 22 38  1  0
 23 39  1  0
M  STY  8   1 DAT   2 DAT   3 DAT   4 DAT   5 DAT   6 DAT   7 DAT   8 DAT
M  STY  8   9 DAT  10 DAT  11 DAT  12 DAT  13 DAT  14 DAT  15 DAT  16 DAT
M  STY  8  17 DAT  18 DAT  19 DAT  20 DAT  21 DAT  22 DAT  23 DAT  24 DAT
M  STY  8  25 DAT  26 DAT  27 DAT  28 DAT  29 DAT  30 DAT  31 DAT  32 DAT
M  STY  8  33 DAT  34 DAT  35 DAT  36 DAT  37 DAT  38 DAT  39 DAT  40 DAT
M  SAL   1  1   1
M  SED   1 [#17&h0]
M  SAL   2  1   2
M  SED   2 [#8&h0]
M  SAL   3  1   3
M  SED   3 [#7&h0]
M  SAL   4  1   4
M  SED   4 [#7&h0]
M  SAL   5  1   5
M  SED   5 [#7&h0]
M  SAL   6  1   6
M  SED   6 [#7&h0]
M  SAL   7  1   7
M  SED   7 [#6&h0]
M  SAL   8  1   8
M  SED   8 [#6&h0]
M  SAL   9  1   9
M  SED   9 [#6&h0]
M  SAL  10  1  10
M  SED  10 [#6&h0]
M  SAL  11  1  11
M  SED  11 [#6&h0]
M  SAL  12  1  12
M  SED  12 [#6&h0]
M  SAL  13  1  13
M  SED  13 [#6&h0]
M  SAL  14  1  14
M  SED  14 [#6&h0]
M  SAL  15  1  15
M  SED  15 [#6&h0]
M  SAL  16  1  16
M  SED  16 [#6&h0]
M  SAL  17  1  17
M  SED  17 [#6&h0]
M  SAL  18  1  18
M  SED  18 [#6&h0]
M  SAL  19  1  19
M  SED  19 [#6&h0]
M  SAL  20  1  20
M  SED  20 [#6&h0]
M  SAL  21  1  21
M  SED  21 [#6&h0]
M  SAL  22  1  22
M  SED  22 [#6&h0]
M  SAL  23  1  23
M  SED  23 [#6&h0]
M  SAL  24  1  24
M  SED  24 [#1&h0]
M  SAL  25  1  25
M  SED  25 [#1&h0]
M  SAL  26  1  26
M  SED  26 [#1&h0]
M  SAL  27  1  27
M  SED  27 [#1&h0]
M  SAL  28  1  28
M  SED  28 [#1&h0]
M  SAL  29  1  29
M  SED  29 [#1&h0]
M  SAL  30  1  30
M  SED  30 [#1&h0]
M  SAL  31  1  31
M  SED  31 [#1&h0]
M  SAL  32  1  32
M  SED  32 [#1&h0]
M  SAL  33  1  33
M  SED  33 [#1&h0]
M  SAL  34  1  34
M  SED  34 [#1&h0]
M  SAL  35  1  35
M  SED  35 [#1&h0]
M  SAL  36  1  36
M  SED  36 [#1&h0]
M  SAL  37  1  37
M  SED  37 [#1&h0]
M  SAL  38  1  38
M  SED  38 [#1&h0]
M  SAL  39  1  39
M  SED  39 [#1&h0]
M  SAL  40  1  40
M  SED  40 [#1&h0]
M  END
>  <Activity>  (63) 
0.01

>  <Mapped(file=2032.csv.activities,property=Cached(PUBCHEM_COMPOUND_CID))>  (63) 
100

>  <MatchIndices>  (63) 
116 

>  <PUBCHEM_ATOM_DEF_STEREO_COUNT>  (63) 
0

>  <PUBCHEM_ATOM_UDEF_STEREO_COUNT>  (63) 
0

>  <PUBCHEM_BONDANNOTATIONS>  (63) 
10  16  8
12  14  8
12  17  8
14  20  8
15  18  8
16  19  8
17  23  8
18  19  8
20  24  8
23  24  8
6  11  8
6  9  8
7  10  8
7  11  8
8  10  8
8  15  8
8  9  8

>  <PUBCHEM_BOND_DEF_STEREO_COUNT>  (63) 
0

>  <PUBCHEM_BOND_UDEF_STEREO_COUNT>  (63) 
0

>  <PUBCHEM_CACTVS_COMPLEXITY>  (63) 
373

>  <PUBCHEM_CACTVS_HBOND_ACCEPTOR>  (63) 
1

>  <PUBCHEM_CACTVS_HBOND_DONOR>  (63) 
4

>  <PUBCHEM_CACTVS_ROTATABLE_BOND>  (63) 
5

>  <PUBCHEM_CACTVS_SUBSKEYS>  (63) 
AAADceB7oAAGAAAAAAAAAAAAAAAAAAAAAAA8YIAAAAAAAACx9AAAHgIQCAAADArhniYz8PbIEgCgAyZiZACCgCkhB6AJmKA4ZpiKOKLB29GEJAhokALYyCcQgAAOAAAAAAIDAAAAAAAABAYAAAAAAAAAAA==

>  <PUBCHEM_CACTVS_TAUTO_COUNT>  (63) 
9

>  <PUBCHEM_CACTVS_TPSA>  (63) 
70.1

>  <PUBCHEM_COMPONENT_COUNT>  (63) 
2

>  <PUBCHEM_COMPOUND_CANONICALIZED>  (63) 
1

>  <PUBCHEM_COMPOUND_CID>  (63) 
2976153

>  <PUBCHEM_COORDINATE_TYPE>  (63) 
1
5
255

>  <PUBCHEM_EXACT_MASS>  (63) 
364.085767

>  <PUBCHEM_HEAVY_ATOM_COUNT>  (63) 
24

>  <PUBCHEM_ISOTOPIC_ATOM_COUNT>  (63) 
0

>  <PUBCHEM_IUPAC_CAS_NAME>  (63) 
2-[[2-(3-chloro-2-methylanilino)-4-quinazolinyl]amino]ethanol hydrochloride

>  <PUBCHEM_IUPAC_INCHI>  (63) 
InChI=1S/C17H17ClN4O.ClH/c1-11-13(18)6-4-8-14(11)20-17-21-15-7-3-2-5-12(15)16(22-17)19-9-10-23;/h2-8,23H,9-10H2,1H3,(H2,19,20,21,22);1H

>  <PUBCHEM_IUPAC_INCHIKEY>  (63) 
JUZNXWNRMSWKBF-UHFFFAOYSA-N

>  <PUBCHEM_IUPAC_NAME>  (63) 
2-[[2-(3-chloro-2-methylanilino)quinazolin-4-yl]amino]ethanol hydrochloride

>  <PUBCHEM_IUPAC_OPENEYE_NAME>  (63) 
2-[[2-(3-chloro-2-methyl-anilino)quinazolin-4-yl]amino]ethanol hydrochloride

>  <PUBCHEM_IUPAC_SYSTEMATIC_NAME>  (63) 
2-[[2-[(3-chloranyl-2-methyl-phenyl)amino]quinazolin-4-yl]amino]ethanol hydrochloride

>  <PUBCHEM_IUPAC_TRADITIONAL_NAME>  (63) 
2-[[2-(3-chloro-2-methyl-anilino)quinazolin-4-yl]amino]ethanol hydrochloride

>  <PUBCHEM_MOLECULAR_FORMULA>  (63) 
C17H18Cl2N4O

>  <PUBCHEM_MOLECULAR_WEIGHT>  (63) 
365.25702

>  <PUBCHEM_MONOISOTOPIC_WEIGHT>  (63) 
364.085767

>  <PUBCHEM_OPENEYE_CAN_SMILES>  (63) 
CC1=C(C=CC=C1Cl)NC2=NC3=CC=CC=C3C(=N2)NCCO.Cl

>  <PUBCHEM_OPENEYE_ISO_SMILES>  (63) 
CC1=C(C=CC=C1Cl)NC2=NC3=CC=CC=C3C(=N2)NCCO.Cl

>  <PUBCHEM_TOTAL_CHARGE>  (63) 
0

$$$$
Largest isolated from Written by BCL::WriteToMDL,2935593
     RDKit          2D

 49 50  0 49  0  0  0  0  0  0999 V2000
    2.0171    2.6123    0.0000 O   0  0  0  0  0  0  0  0  0  0  0  0
    6.8566   -0.9345    0.0000 N   0  0  0  0  0  0  0  0  0  0  0  0
   -3.4742    0.1946    0.0000 C   0  0  0  0  0  0  0  0  0  0  0  0
   -2.1014    0.7990    0.0000 C   0  0  0  0  0  0  0  0  0  0  0  0
   -4.8470   -0.4098    0.0000 C   0  0  0  0  0  0  0  0  0  0  0  0
   -4.0786    1.5674    0.0000 C   0  0  0  0  0  0  0  0  0  0  0  0
   -2.8698   -1.1782    0.0000 C   0  0  0  0  0  0  0  0  0  0  0  0
   -0.8915   -0.0877    0.0000 C   0  0  0  0  0  0  0  0  0  0  0  0
   -1.9384    2.2902    0.0000 C   0  0  0  0  0  0  0  0  0  0  0  0
   -6.0569    0.4769    0.0000 C   0  0  0  0  0  0  0  0  0  0  0  0
   -5.0100   -1.9009    0.0000 C   0  0  0  0  0  0  0  0  0  0  0  0
    0.6443    2.0079    0.0000 C   0  0  0  0  0  0  0  0  0  0  0  0
    0.4813    0.5168    0.0000 C   0  0  0  0  0  0  0  0  0  0  0  0
   -0.5656    2.8946    0.0000 C   0  0  0  0  0  0  0  0  0  0  0  0
    4.4369    0.8389    0.0000 C   0  0  0  0  0  0  0  0  0  0  0  0
    3.2270    1.7256    0.0000 C   0  0  0  0  0  0  0  0  0  0  0  0
   -7.4297   -0.1275    0.0000 C   0  0  0  0  0  0  0  0  0  0  0  0
   -6.3828   -2.5054    0.0000 C   0  0  0  0  0  0  0  0  0  0  0  0
    5.6467   -0.0478    0.0000 C   0  0  0  0  0  0  0  0  0  0  0  0
   -7.5927   -1.6187    0.0000 C   0  0  0  0  0  0  0  0  0  0  0  0
    6.6936   -2.4256    0.0000 C   0  0  0  0  0  0  0  0  0  0  0  0
    8.2294   -0.3301    0.0000 C   0  0  0  0  0  0  0  0  0  0  0  0
   -4.9515    1.4173    0.0000 H   0  0  0  0  0  0  0  0  0  0  0  0
   -3.3784    2.1099    0.0000 H   0  0  0  0  0  0  0  0  0  0  0  0
   -4.0556   -2.0969    0.0000 H   0  0  0  0  0  0  0  0  0  0  0  0
   -1.9969   -1.0281    0.0000 H   0  0  0  0  0  0  0  0  0  0  0  0
   -2.2653   -2.5511    0.0000 H   0  0  0  0  0  0  0  0  0  0  0  0
   -4.6831    2.9403    0.0000 H   0  0  0  0  0  0  0  0  0  0  0  0
   -0.9877   -0.9682    0.0000 H   0  0  0  0  0  0  0  0  0  0  0  0
   -2.6528    2.8137    0.0000 H   0  0  0  0  0  0  0  0  0  0  0  0
   -5.9607    1.3574    0.0000 H   0  0  0  0  0  0  0  0  0  0  0  0
   -3.8001   -2.7876    0.0000 H   0  0  0  0  0  0  0  0  0  0  0  0
    1.6912   -0.3699    0.0000 H   0  0  0  0  0  0  0  0  0  0  0  0
   -0.4026    4.3857    0.0000 H   0  0  0  0  0  0  0  0  0  0  0  0
    3.5502   -0.3709    0.0000 H   0  0  0  0  0  0  0  0  0  0  0  0
    5.3236    2.0488    0.0000 H   0  0  0  0  0  0  0  0  0  0  0  0
    4.1137    2.9355    0.0000 H   0  0  0  0  0  0  0  0  0  0  0  0
    2.3403    0.5157    0.0000 H   0  0  0  0  0  0  0  0  0  0  0  0
   -8.6396    0.7591    0.0000 H   0  0  0  0  0  0  0  0  0  0  0  0
   -6.5458   -3.9965    0.0000 H   0  0  0  0  0  0  0  0  0  0  0  0
    4.7600   -1.2576    0.0000 H   0  0  0  0  0  0  0  0  0  0  0  0
    6.5334    1.1621    0.0000 H   0  0  0  0  0  0  0  0  0  0  0  0
   -8.9655   -2.2231    0.0000 H   0  0  0  0  0  0  0  0  0  0  0  0
    8.1847   -2.5886    0.0000 H   0  0  0  0  0  0  0  0  0  0  0  0
    5.2025   -2.2626    0.0000 H   0  0  0  0  0  0  0  0  0  0  0  0
    6.5306   -3.9167    0.0000 H   0  0  0  0  0  0  0  0  0  0  0  0
    8.8338   -1.7029    0.0000 H   0  0  0  0  0  0  0  0  0  0  0  0
    7.6250    1.0428    0.0000 H   0  0  0  0  0  0  0  0  0  0  0  0
    9.6023    0.2744    0.0000 H   0  0  0  0  0  0  0  0  0  0  0  0
  1 12  1  0
  1 16  1  0
  2 19  1  0
  2 21  1  0
  2 22  1  0
  3  4  1  0
  3  5  1  0
  3  6  1  0
  3  7  1  0
  4  8  2  0
  4  9  1  0
  5 10  2  0
  5 11  1  0
  6 23  1  0
  6 24  1  0
  6 28  1  0
  7 25  1  0
  7 26  1  0
  7 27  1  0
  8 13  1  0
  8 29  1  0
  9 14  2  0
  9 30  1  0
 10 17  1  0
 10 31  1  0
 11 18  2  0
 11 32  1  0
 12 13  2  0
 12 14  1  0
 13 33  1  0
 14 34  1  0
 15 16  1  0
 15 19  1  0
 15 35  1  0
 15 36  1  0
 16 37  1  0
 16 38  1  0
 17 20  2  0
 17 39  1  0
 18 20  1  0
 18 40  1  0
 19 41  1  0
 19 42  1  0
 20 43  1  0
 21 44  1  0
 21 45  1  0
 21 46  1  0
 22 47  1  0
 22 48  1  0
 22 49  1  0
M  STY  8   1 DAT   2 DAT   3 DAT   4 DAT   5 DAT   6 DAT   7 DAT   8 DAT
M  STY  8   9 DAT  10 DAT  11 DAT  12 DAT  13 DAT  14 DAT  15 DAT  16 DAT
M  STY  8  17 DAT  18 DAT  19 DAT  20 DAT  21 DAT  22 DAT  23 DAT  24 DAT
M  STY  8  25 DAT  26 DAT  27 DAT  28 DAT  29 DAT  30 DAT  31 DAT  32 DAT
M  STY  8  33 DAT  34 DAT  35 DAT  36 DAT  37 DAT  38 DAT  39 DAT  40 DAT
M  STY  8  41 DAT  42 DAT  43 DAT  44 DAT  45 DAT  46 DAT  47 DAT  48 DAT
M  STY  1  49 DAT
M  SAL   1  1   1
M  SED   1 [#8&h0]
M  SAL   2  1   2
M  SED   2 [#7&h0]
M  SAL   3  1   3
M  SED   3 [#6&h0]
M  SAL   4  1   4
M  SED   4 [#6&h0]
M  SAL   5  1   5
M  SED   5 [#6&h0]
M  SAL   6  1   6
M  SED   6 [#6&h0]
M  SAL   7  1   7
M  SED   7 [#6&h0]
M  SAL   8  1   8
M  SED   8 [#6&h0]
M  SAL   9  1   9
M  SED   9 [#6&h0]
M  SAL  10  1  10
M  SED  10 [#6&h0]
M  SAL  11  1  11
M  SED  11 [#6&h0]
M  SAL  12  1  12
M  SED  12 [#6&h0]
M  SAL  13  1  13
M  SED  13 [#6&h0]
M  SAL  14  1  14
M  SED  14 [#6&h0]
M  SAL  15  1  15
M  SED  15 [#6&h0]
M  SAL  16  1  16
M  SED  16 [#6&h0]
M  SAL  17  1  17
M  SED  17 [#6&h0]
M  SAL  18  1  18
M  SED  18 [#6&h0]
M  SAL  19  1  19
M  SED  19 [#6&h0]
M  SAL  20  1  20
M  SED  20 [#6&h0]
M  SAL  21  1  21
M  SED  21 [#6&h0]
M  SAL  22  1  22
M  SED  22 [#6&h0]
M  SAL  23  1  23
M  SED  23 [#1&h0]
M  SAL  24  1  24
M  SED  24 [#1&h0]
M  SAL  25  1  25
M  SED  25 [#1&h0]
M  SAL  26  1  26
M  SED  26 [#1&h0]
M  SAL  27  1  27
M  SED  27 [#1&h0]
M  SAL  28  1  28
M  SED  28 [#1&h0]
M  SAL  29  1  29
M  SED  29 [#1&h0]
M  SAL  30  1  30
M  SED  30 [#1&h0]
M  SAL  31  1  31
M  SED  31 [#1&h0]
M  SAL  32  1  32
M  SED  32 [#1&h0]
M  SAL  33  1  33
M  SED  33 [#1&h0]
M  SAL  34  1  34
M  SED  34 [#1&h0]
M  SAL  35  1  35
M  SED  35 [#1&h0]
M  SAL  36  1  36
M  SED  36 [#1&h0]
M  SAL  37  1  37
M  SED  37 [#1&h0]
M  SAL  38  1  38
M  SED  38 [#1&h0]
M  SAL  39  1  39
M  SED  39 [#1&h0]
M  SAL  40  1  40
M  SED  40 [#1&h0]
M  SAL  41  1  41
M  SED  41 [#1&h0]
M  SAL  42  1  42
M  SED  42 [#1&h0]
M  SAL  43  1  43
M  SED  43 [#1&h0]
M  SAL  44  1  44
M  SED  44 [#1&h0]
M  SAL  45  1  45
M  SED  45 [#1&h0]
M  SAL  46  1  46
M  SED  46 [#1&h0]
M  SAL  47  1  47
M  SED  47 [#1&h0]
M  SAL  48  1  48
M  SED  48 [#1&h0]
M  SAL  49  1  49
M  SED  49 [#1&h0]
M  END
>  <Activity>  (64) 
0.01

>  <Mapped(file=2032.csv.activities,property=Cached(PUBCHEM_COMPOUND_CID))>  (64) 
100

>  <MatchIndices>  (64) 
90 

>  <PUBCHEM_ATOM_DEF_STEREO_COUNT>  (64) 
0

>  <PUBCHEM_ATOM_UDEF_STEREO_COUNT>  (64) 
0

>  <PUBCHEM_BONDANNOTATIONS>  (64) 
12  17  8
13  18  8
14  21  8
15  22  8
16  17  8
16  18  8
21  24  8
22  24  8
8  12  8
8  13  8
9  14  8
9  15  8

>  <PUBCHEM_BOND_DEF_STEREO_COUNT>  (64) 
0

>  <PUBCHEM_BOND_UDEF_STEREO_COUNT>  (64) 
0

>  <PUBCHEM_CACTVS_COMPLEXITY>  (64) 
370

>  <PUBCHEM_CACTVS_HBOND_ACCEPTOR>  (64) 
6

>  <PUBCHEM_CACTVS_HBOND_DONOR>  (64) 
2

>  <PUBCHEM_CACTVS_ROTATABLE_BOND>  (64) 
8

>  <PUBCHEM_CACTVS_SUBSKEYS>  (64) 
AAADceB6OAAAAAAAAAAAAAAAAAAAAAAAAAAwYAAAAAAAAAABQAAAHgAACAAADgThmAYyDoMABgCIAiDSCAICCAAgIAAIiABOCIgNJiKEMRqGOCCmwBEJqAeAwPAPoAAAAAAAAABAAAAAAAAAAAAAAAAAAA==

>  <PUBCHEM_CACTVS_TAUTO_COUNT>  (64) 
1

>  <PUBCHEM_CACTVS_TPSA>  (64) 
87.1

>  <PUBCHEM_COMPONENT_COUNT>  (64) 
2

>  <PUBCHEM_COMPOUND_CANONICALIZED>  (64) 
1

>  <PUBCHEM_COMPOUND_CID>  (64) 
2935593

>  <PUBCHEM_COORDINATE_TYPE>  (64) 
1
5
255

>  <PUBCHEM_EXACT_MASS>  (64) 
387.204573

>  <PUBCHEM_HEAVY_ATOM_COUNT>  (64) 
28

>  <PUBCHEM_ISOTOPIC_ATOM_COUNT>  (64) 
0

>  <PUBCHEM_IUPAC_CAS_NAME>  (64) 
N,N-dimethyl-3-[4-(2-phenylpropan-2-yl)phenoxy]-1-propanamine; oxalic acid

>  <PUBCHEM_IUPAC_INCHI>  (64) 
InChI=1S/C20H27NO.C2H2O4/c1-20(2,17-9-6-5-7-10-17)18-11-13-19(14-12-18)22-16-8-15-21(3)4;3-1(4)2(5)6/h5-7,9-14H,8,15-16H2,1-4H3;(H,3,4)(H,5,6)

>  <PUBCHEM_IUPAC_INCHIKEY>  (64) 
AOSLPJHUFGVJJP-UHFFFAOYSA-N

>  <PUBCHEM_IUPAC_NAME>  (64) 
N,N-dimethyl-3-[4-(2-phenylpropan-2-yl)phenoxy]propan-1-amine; oxalic acid

>  <PUBCHEM_IUPAC_OPENEYE_NAME>  (64) 
N,N-dimethyl-3-[4-(1-methyl-1-phenyl-ethyl)phenoxy]propan-1-amine; oxalic acid

>  <PUBCHEM_IUPAC_SYSTEMATIC_NAME>  (64) 
N,N-dimethyl-3-[4-(2-phenylpropan-2-yl)phenoxy]propan-1-amine; ethanedioic acid

>  <PUBCHEM_IUPAC_TRADITIONAL_NAME>  (64) 
3-(4-cumylphenoxy)propyl-dimethyl-amine; oxalic acid

>  <PUBCHEM_MOLECULAR_FORMULA>  (64) 
C22H29NO5

>  <PUBCHEM_MOLECULAR_WEIGHT>  (64) 
387.46936

>  <PUBCHEM_MONOISOTOPIC_WEIGHT>  (64) 
387.204573

>  <PUBCHEM_OPENEYE_CAN_SMILES>  (64) 
CC(C)(C1=CC=CC=C1)C2=CC=C(C=C2)OCCCN(C)C.C(=O)(C(=O)O)O

>  <PUBCHEM_OPENEYE_ISO_SMILES>  (64) 
CC(C)(C1=CC=CC=C1)C2=CC=C(C=C2)OCCCN(C)C.C(=O)(C(=O)O)O

>  <PUBCHEM_TOTAL_CHARGE>  (64) 
0

$$$$
Largest isolated from Written by BCL::WriteToMDL,6898171
     RDKit          2D

 40 41  0 40  0  0  0  0  0  0999 V2000
   -1.0321   -0.6554    0.0000 S   0  0  0  0  0  0  0  0  0  0  0  0
    0.3485   -1.2418    0.0000 O   0  0  0  0  0  0  0  0  0  0  0  0
    3.1097   -2.4148    0.0000 O   0  0  0  0  0  0  0  0  0  0  0  0
   -0.4457    0.7252    0.0000 O   0  0  0  0  0  0  0  0  0  0  0  0
   -1.6186   -2.0360    0.0000 O   0  0  0  0  0  0  0  0  0  0  0  0
    7.7200    2.6837    0.0000 O   0  0  0  0  0  0  0  0  0  0  0  0
    6.5218    1.7813    0.0000 N   0  0  0  0  0  0  0  0  0  0  0  0
   -2.4127   -0.0689    0.0000 C   0  0  0  0  0  0  0  0  0  0  0  0
    1.5466   -0.3394    0.0000 C   0  0  0  0  0  0  0  0  0  0  0  0
    2.9272   -0.9259    0.0000 C   0  0  0  0  0  0  0  0  0  0  0  0
   -2.5952    1.4200    0.0000 C   0  0  0  0  0  0  0  0  0  0  0  0
   -3.6109   -0.9713    0.0000 C   0  0  0  0  0  0  0  0  0  0  0  0
   -5.1739    1.1040    0.0000 C   0  0  0  0  0  0  0  0  0  0  0  0
   -3.9758    2.0064    0.0000 C   0  0  0  0  0  0  0  0  0  0  0  0
   -4.9915   -0.3848    0.0000 C   0  0  0  0  0  0  0  0  0  0  0  0
    1.3642    1.1494    0.0000 C   0  0  0  0  0  0  0  0  0  0  0  0
    4.1254   -0.0235    0.0000 C   0  0  0  0  0  0  0  0  0  0  0  0
    3.9430    1.4654    0.0000 C   0  0  0  0  0  0  0  0  0  0  0  0
    2.5624    2.0518    0.0000 C   0  0  0  0  0  0  0  0  0  0  0  0
   -6.5545    1.6905    0.0000 C   0  0  0  0  0  0  0  0  0  0  0  0
    1.9115   -3.3172    0.0000 C   0  0  0  0  0  0  0  0  0  0  0  0
    5.1412    2.3678    0.0000 C   0  0  0  0  0  0  0  0  0  0  0  0
    0.7133   -4.2196    0.0000 C   0  0  0  0  0  0  0  0  0  0  0  0
   -1.3970    2.3224    0.0000 H   0  0  0  0  0  0  0  0  0  0  0  0
   -3.4285   -2.4602    0.0000 H   0  0  0  0  0  0  0  0  0  0  0  0
   -0.0164    1.7359    0.0000 H   0  0  0  0  0  0  0  0  0  0  0  0
   -4.1582    3.4953    0.0000 H   0  0  0  0  0  0  0  0  0  0  0  0
   -6.1897   -1.2872    0.0000 H   0  0  0  0  0  0  0  0  0  0  0  0
    5.5060   -0.6100    0.0000 H   0  0  0  0  0  0  0  0  0  0  0  0
    2.3800    3.5407    0.0000 H   0  0  0  0  0  0  0  0  0  0  0  0
   -5.9681    3.0711    0.0000 H   0  0  0  0  0  0  0  0  0  0  0  0
   -7.1410    0.3099    0.0000 H   0  0  0  0  0  0  0  0  0  0  0  0
   -7.9351    2.2770    0.0000 H   0  0  0  0  0  0  0  0  0  0  0  0
    2.8139   -4.5154    0.0000 H   0  0  0  0  0  0  0  0  0  0  0  0
    1.0091   -2.1190    0.0000 H   0  0  0  0  0  0  0  0  0  0  0  0
    4.9588    3.8566    0.0000 H   0  0  0  0  0  0  0  0  0  0  0  0
   -0.1891   -3.0214    0.0000 H   0  0  0  0  0  0  0  0  0  0  0  0
    1.6157   -5.4178    0.0000 H   0  0  0  0  0  0  0  0  0  0  0  0
   -0.4849   -5.1220    0.0000 H   0  0  0  0  0  0  0  0  0  0  0  0
    9.1006    2.0972    0.0000 H   0  0  0  0  0  0  0  0  0  0  0  0
  1  2  1  0
  1  4  2  0
  1  5  2  0
  1  8  1  0
  2  9  1  0
  3 10  1  0
  3 21  1  0
  6  7  1  0
  6 40  1  0
  7 22  2  0
  8 11  2  0
  8 12  1  0
  9 10  2  0
  9 16  1  0
 10 17  1  0
 11 14  1  0
 11 24  1  0
 12 15  2  0
 12 25  1  0
 13 14  2  0
 13 15  1  0
 13 20  1  0
 14 27  1  0
 15 28  1  0
 16 19  2  0
 16 26  1  0
 17 18  2  0
 17 29  1  0
 18 19  1  0
 18 22  1  0
 19 30  1  0
 20 31  1  0
 20 32  1  0
 20 33  1  0
 21 23  1  0
 21 34  1  0
 21 35  1  0
 22 36  1  0
 23 37  1  0
 23 38  1  0
 23 39  1  0
M  STY  8   1 DAT   2 DAT   3 DAT   4 DAT   5 DAT   6 DAT   7 DAT   8 DAT
M  STY  8   9 DAT  10 DAT  11 DAT  12 DAT  13 DAT  14 DAT  15 DAT  16 DAT
M  STY  8  17 DAT  18 DAT  19 DAT  20 DAT  21 DAT  22 DAT  23 DAT  24 DAT
M  STY  8  25 DAT  26 DAT  27 DAT  28 DAT  29 DAT  30 DAT  31 DAT  32 DAT
M  STY  8  33 DAT  34 DAT  35 DAT  36 DAT  37 DAT  38 DAT  39 DAT  40 DAT
M  SAL   1  1   1
M  SED   1 [#16&h0]
M  SAL   2  1   2
M  SED   2 [#8&h0]
M  SAL   3  1   3
M  SED   3 [#8&h0]
M  SAL   4  1   4
M  SED   4 [#8&h0]
M  SAL   5  1   5
M  SED   5 [#8&h0]
M  SAL   6  1   6
M  SED   6 [#8&h0]
M  SAL   7  1   7
M  SED   7 [#7&h0]
M  SAL   8  1   8
M  SED   8 [#6&h0]
M  SAL   9  1   9
M  SED   9 [#6&h0]
M  SAL  10  1  10
M  SED  10 [#6&h0]
M  SAL  11  1  11
M  SED  11 [#6&h0]
M  SAL  12  1  12
M  SED  12 [#6&h0]
M  SAL  13  1  13
M  SED  13 [#6&h0]
M  SAL  14  1  14
M  SED  14 [#6&h0]
M  SAL  15  1  15
M  SED  15 [#6&h0]
M  SAL  16  1  16
M  SED  16 [#6&h0]
M  SAL  17  1  17
M  SED  17 [#6&h0]
M  SAL  18  1  18
M  SED  18 [#6&h0]
M  SAL  19  1  19
M  SED  19 [#6&h0]
M  SAL  20  1  20
M  SED  20 [#6&h0]
M  SAL  21  1  21
M  SED  21 [#6&h0]
M  SAL  22  1  22
M  SED  22 [#6&h0]
M  SAL  23  1  23
M  SED  23 [#6&h0]
M  SAL  24  1  24
M  SED  24 [#1&h0]
M  SAL  25  1  25
M  SED  25 [#1&h0]
M  SAL  26  1  26
M  SED  26 [#1&h0]
M  SAL  27  1  27
M  SED  27 [#1&h0]
M  SAL  28  1  28
M  SED  28 [#1&h0]
M  SAL  29  1  29
M  SED  29 [#1&h0]
M  SAL  30  1  30
M  SED  30 [#1&h0]
M  SAL  31  1  31
M  SED  31 [#1&h0]
M  SAL  32  1  32
M  SED  32 [#1&h0]
M  SAL  33  1  33
M  SED  33 [#1&h0]
M  SAL  34  1  34
M  SED  34 [#1&h0]
M  SAL  35  1  35
M  SED  35 [#1&h0]
M  SAL  36  1  36
M  SED  36 [#1&h0]
M  SAL  37  1  37
M  SED  37 [#1&h0]
M  SAL  38  1  38
M  SED  38 [#1&h0]
M  SAL  39  1  39
M  SED  39 [#1&h0]
M  SAL  40  1  40
M  SED  40 [#1&h0]
M  END
>  <Activity>  (65) 
0.01

>  <Mapped(file=2032.csv.activities,property=Cached(PUBCHEM_COMPOUND_CID))>  (65) 
100

>  <MatchIndices>  (65) 
199 

>  <PUBCHEM_ATOM_DEF_STEREO_COUNT>  (65) 
0

>  <PUBCHEM_ATOM_UDEF_STEREO_COUNT>  (65) 
0

>  <PUBCHEM_BONDANNOTATIONS>  (65) 
10  17  8
11  14  8
12  15  8
13  14  8
13  15  8
16  19  8
17  18  8
18  19  8
8  11  8
8  12  8
9  10  8
9  16  8

>  <PUBCHEM_BOND_DEF_STEREO_COUNT>  (65) 
1

>  <PUBCHEM_BOND_UDEF_STEREO_COUNT>  (65) 
0

>  <PUBCHEM_CACTVS_COMPLEXITY>  (65) 
479

>  <PUBCHEM_CACTVS_HBOND_ACCEPTOR>  (65) 
6

>  <PUBCHEM_CACTVS_HBOND_DONOR>  (65) 
1

>  <PUBCHEM_CACTVS_ROTATABLE_BOND>  (65) 
6

>  <PUBCHEM_CACTVS_SUBSKEYS>  (65) 
AAADceB6OABAAAAAAAAAAAAAAAAAAAAAAAAwYAAAAAAAAAABQAAAHgQECAAADATh2AYyB4AQBAKgAjBjAHBCCEAgIAAIiBgmiJgNJqKEMRqCOCKkwBEKqAeAwBAOMAABAAAAQABgAAIAAACAAAAAAAAAAA==

>  <PUBCHEM_CACTVS_TAUTO_COUNT>  (65) 
2

>  <PUBCHEM_CACTVS_TPSA>  (65) 
93.6

>  <PUBCHEM_COMPONENT_COUNT>  (65) 
1

>  <PUBCHEM_COMPOUND_CANONICALIZED>  (65) 
1

>  <PUBCHEM_COMPOUND_CID>  (65) 
6898171

>  <PUBCHEM_COORDINATE_TYPE>  (65) 
1
5
255

>  <PUBCHEM_EXACT_MASS>  (65) 
335.082744

>  <PUBCHEM_HEAVY_ATOM_COUNT>  (65) 
23

>  <PUBCHEM_ISOTOPIC_ATOM_COUNT>  (65) 
0

>  <PUBCHEM_IUPAC_CAS_NAME>  (65) 
4-methylbenzenesulfonic acid [2-ethoxy-4-[(E)-hydroxyiminomethyl]phenyl] ester

>  <PUBCHEM_IUPAC_INCHI>  (65) 
InChI=1S/C16H17NO5S/c1-3-21-16-10-13(11-17-18)6-9-15(16)22-23(19,20)14-7-4-12(2)5-8-14/h4-11,18H,3H2,1-2H3/b17-11+

>  <PUBCHEM_IUPAC_INCHIKEY>  (65) 
HGDFCODWMVUDAB-GZTJUZNOSA-N

>  <PUBCHEM_IUPAC_NAME>  (65) 
[2-ethoxy-4-[(E)-hydroxyiminomethyl]phenyl] 4-methylbenzenesulfonate

>  <PUBCHEM_IUPAC_OPENEYE_NAME>  (65) 
[2-ethoxy-4-[(E)-hydroxyiminomethyl]phenyl] 4-methylbenzenesulfonate

>  <PUBCHEM_IUPAC_SYSTEMATIC_NAME>  (65) 
[2-ethoxy-4-[(E)-hydroxyiminomethyl]phenyl] 4-methylbenzenesulfonate

>  <PUBCHEM_IUPAC_TRADITIONAL_NAME>  (65) 
4-methylbenzenesulfonic acid [2-ethoxy-4-[(E)-hydroximinomethyl]phenyl] ester

>  <PUBCHEM_MOLECULAR_FORMULA>  (65) 
C16H17NO5S

>  <PUBCHEM_MOLECULAR_WEIGHT>  (65) 
335.37488

>  <PUBCHEM_MONOISOTOPIC_WEIGHT>  (65) 
335.082744

>  <PUBCHEM_OPENEYE_CAN_SMILES>  (65) 
CCOC1=C(C=CC(=C1)C=NO)OS(=O)(=O)C2=CC=C(C=C2)C

>  <PUBCHEM_OPENEYE_ISO_SMILES>  (65) 
CCOC1=C(C=CC(=C1)/C=N/O)OS(=O)(=O)C2=CC=C(C=C2)C

>  <PUBCHEM_TOTAL_CHARGE>  (65) 
0

>  <PUBCHEM_XLOGP3_AA>  (65) 
3.4

$$$$
Largest isolated from Written by BCL::WriteToMDL,1889549
     RDKit          2D

 50 52  0 50  0  0  0  0  0  0999 V2000
   -3.5489   -2.8732    0.0000 S   0  0  0  0  0  0  0  0  0  0  0  0
    0.3864   -3.8995    0.0000 O   0  0  0  0  0  0  0  0  0  0  0  0
    5.5741   -0.9342    0.0000 O   0  0  0  0  0  0  0  0  0  0  0  0
    0.1568    2.4918    0.0000 O   0  0  0  0  0  0  0  0  0  0  0  0
   -2.2728    1.5716    0.0000 O   0  0  0  0  0  0  0  0  0  0  0  0
    2.8354    1.9380    0.0000 N   0  0  0  0  0  0  0  0  0  0  0  0
    1.7174   -1.8699    0.0000 C   0  0  0  0  0  0  0  0  0  0  0  0
    0.2702   -1.4752    0.0000 C   0  0  0  0  0  0  0  0  0  0  0  0
    2.9790   -1.0586    0.0000 C   0  0  0  0  0  0  0  0  0  0  0  0
    1.7892   -3.3682    0.0000 C   0  0  0  0  0  0  0  0  0  0  0  0
   -0.5523   -2.7295    0.0000 C   0  0  0  0  0  0  0  0  0  0  0  0
    2.9072    0.4397    0.0000 C   0  0  0  0  0  0  0  0  0  0  0  0
   -0.2611   -0.0724    0.0000 C   0  0  0  0  0  0  0  0  0  0  0  0
    4.3125   -1.7455    0.0000 C   0  0  0  0  0  0  0  0  0  0  0  0
    3.1226   -4.0551    0.0000 C   0  0  0  0  0  0  0  0  0  0  0  0
   -2.0506   -2.8014    0.0000 C   0  0  0  0  0  0  0  0  0  0  0  0
    4.3843   -3.2438    0.0000 C   0  0  0  0  0  0  0  0  0  0  0  0
   -0.7924    1.3303    0.0000 C   0  0  0  0  0  0  0  0  0  0  0  0
    4.0970    2.7493    0.0000 C   0  0  0  0  0  0  0  0  0  0  0  0
    1.5019    2.6249    0.0000 C   0  0  0  0  0  0  0  0  0  0  0  0
   -4.3602   -1.6115    0.0000 C   0  0  0  0  0  0  0  0  0  0  0  0
   -3.6733   -0.2781    0.0000 C   0  0  0  0  0  0  0  0  0  0  0  0
   -5.8585   -1.6833    0.0000 C   0  0  0  0  0  0  0  0  0  0  0  0
   -0.3745    3.8946    0.0000 C   0  0  0  0  0  0  0  0  0  0  0  0
   -4.4846    0.9836    0.0000 C   0  0  0  0  0  0  0  0  0  0  0  0
   -6.6698   -0.4217    0.0000 C   0  0  0  0  0  0  0  0  0  0  0  0
   -5.9829    0.9117    0.0000 C   0  0  0  0  0  0  0  0  0  0  0  0
    4.4055    0.5115    0.0000 H   0  0  0  0  0  0  0  0  0  0  0  0
    1.8167    0.5209    0.0000 H   0  0  0  0  0  0  0  0  0  0  0  0
   -1.3973   -0.5028    0.0000 H   0  0  0  0  0  0  0  0  0  0  0  0
    0.7615    0.3149    0.0000 H   0  0  0  0  0  0  0  0  0  0  0  0
    3.1945   -5.5534    0.0000 H   0  0  0  0  0  0  0  0  0  0  0  0
   -2.3045   -1.3230    0.0000 H   0  0  0  0  0  0  0  0  0  0  0  0
   -1.9788   -4.2996    0.0000 H   0  0  0  0  0  0  0  0  0  0  0  0
    5.7177   -3.9307    0.0000 H   0  0  0  0  0  0  0  0  0  0  0  0
    3.2857    4.0110    0.0000 H   0  0  0  0  0  0  0  0  0  0  0  0
    2.1889    3.9584    0.0000 H   0  0  0  0  0  0  0  0  0  0  0  0
    0.9826    1.2177    0.0000 H   0  0  0  0  0  0  0  0  0  0  0  0
    0.9972    3.3528    0.0000 H   0  0  0  0  0  0  0  0  0  0  0  0
    4.9084    1.4877    0.0000 H   0  0  0  0  0  0  0  0  0  0  0  0
    5.3587    3.5607    0.0000 H   0  0  0  0  0  0  0  0  0  0  0  0
    6.9076   -1.6211    0.0000 H   0  0  0  0  0  0  0  0  0  0  0  0
   -2.4616   -0.3683    0.0000 H   0  0  0  0  0  0  0  0  0  0  0  0
   -6.5455   -3.0168    0.0000 H   0  0  0  0  0  0  0  0  0  0  0  0
    0.4538    4.2083    0.0000 H   0  0  0  0  0  0  0  0  0  0  0  0
   -1.7772    3.3633    0.0000 H   0  0  0  0  0  0  0  0  0  0  0  0
   -0.9058    5.2973    0.0000 H   0  0  0  0  0  0  0  0  0  0  0  0
   -3.7977    2.3170    0.0000 H   0  0  0  0  0  0  0  0  0  0  0  0
   -8.1681   -0.4935    0.0000 H   0  0  0  0  0  0  0  0  0  0  0  0
   -6.7942    2.1734    0.0000 H   0  0  0  0  0  0  0  0  0  0  0  0
  1 16  1  0
  1 21  1  0
  2 10  1  0
  2 11  1  0
  3 14  1  0
  3 42  1  0
  4 18  1  0
  4 24  1  0
  5 18  2  0
  6 12  1  0
  6 19  1  0
  6 20  1  0
  7  8  1  0
  7  9  1  0
  7 10  2  0
  8 11  2  0
  8 13  1  0
  9 12  1  0
  9 14  2  0
 10 15  1  0
 11 16  1  0
 12 28  1  0
 12 29  1  0
 13 18  1  0
 13 30  1  0
 13 31  1  0
 14 17  1  0
 15 17  2  0
 15 32  1  0
 16 33  1  0
 16 34  1  0
 17 35  1  0
 19 36  1  0
 19 40  1  0
 19 41  1  0
 20 37  1  0
 20 38  1  0
 20 39  1  0
 21 22  2  0
 21 23  1  0
 22 25  1  0
 22 43  1  0
 23 26  2  0
 23 44  1  0
 24 45  1  0
 24 46  1  0
 24 47  1  0
 25 27  2  0
 25 48  1  0
 26 27  1  0
 26 49  1  0
 27 50  1  0
M  STY  8   1 DAT   2 DAT   3 DAT   4 DAT   5 DAT   6 DAT   7 DAT   8 DAT
M  STY  8   9 DAT  10 DAT  11 DAT  12 DAT  13 DAT  14 DAT  15 DAT  16 DAT
M  STY  8  17 DAT  18 DAT  19 DAT  20 DAT  21 DAT  22 DAT  23 DAT  24 DAT
M  STY  8  25 DAT  26 DAT  27 DAT  28 DAT  29 DAT  30 DAT  31 DAT  32 DAT
M  STY  8  33 DAT  34 DAT  35 DAT  36 DAT  37 DAT  38 DAT  39 DAT  40 DAT
M  STY  8  41 DAT  42 DAT  43 DAT  44 DAT  45 DAT  46 DAT  47 DAT  48 DAT
M  STY  2  49 DAT  50 DAT
M  SAL   1  1   1
M  SED   1 [#16&h0]
M  SAL   2  1   2
M  SED   2 [#8&h0]
M  SAL   3  1   3
M  SED   3 [#8&h0]
M  SAL   4  1   4
M  SED   4 [#8&h0]
M  SAL   5  1   5
M  SED   5 [#8&h0]
M  SAL   6  1   6
M  SED   6 [#7&h0]
M  SAL   7  1   7
M  SED   7 [#6&h0]
M  SAL   8  1   8
M  SED   8 [#6&h0]
M  SAL   9  1   9
M  SED   9 [#6&h0]
M  SAL  10  1  10
M  SED  10 [#6&h0]
M  SAL  11  1  11
M  SED  11 [#6&h0]
M  SAL  12  1  12
M  SED  12 [#6&h0]
M  SAL  13  1  13
M  SED  13 [#6&h0]
M  SAL  14  1  14
M  SED  14 [#6&h0]
M  SAL  15  1  15
M  SED  15 [#6&h0]
M  SAL  16  1  16
M  SED  16 [#6&h0]
M  SAL  17  1  17
M  SED  17 [#6&h0]
M  SAL  18  1  18
M  SED  18 [#6&h0]
M  SAL  19  1  19
M  SED  19 [#6&h0]
M  SAL  20  1  20
M  SED  20 [#6&h0]
M  SAL  21  1  21
M  SED  21 [#6&h0]
M  SAL  22  1  22
M  SED  22 [#6&h0]
M  SAL  23  1  23
M  SED  23 [#6&h0]
M  SAL  24  1  24
M  SED  24 [#6&h0]
M  SAL  25  1  25
M  SED  25 [#6&h0]
M  SAL  26  1  26
M  SED  26 [#6&h0]
M  SAL  27  1  27
M  SED  27 [#6&h0]
M  SAL  28  1  28
M  SED  28 [#1&h0]
M  SAL  29  1  29
M  SED  29 [#1&h0]
M  SAL  30  1  30
M  SED  30 [#1&h0]
M  SAL  31  1  31
M  SED  31 [#1&h0]
M  SAL  32  1  32
M  SED  32 [#1&h0]
M  SAL  33  1  33
M  SED  33 [#1&h0]
M  SAL  34  1  34
M  SED  34 [#1&h0]
M  SAL  35  1  35
M  SED  35 [#1&h0]
M  SAL  36  1  36
M  SED  36 [#1&h0]
M  SAL  37  1  37
M  SED  37 [#1&h0]
M  SAL  38  1  38
M  SED  38 [#1&h0]
M  SAL  39  1  39
M  SED  39 [#1&h0]
M  SAL  40  1  40
M  SED  40 [#1&h0]
M  SAL  41  1  41
M  SED  41 [#1&h0]
M  SAL  42  1  42
M  SED  42 [#1&h0]
M  SAL  43  1  43
M  SED  43 [#1&h0]
M  SAL  44  1  44
M  SED  44 [#1&h0]
M  SAL  45  1  45
M  SED  45 [#1&h0]
M  SAL  46  1  46
M  SED  46 [#1&h0]
M  SAL  47  1  47
M  SED  47 [#1&h0]
M  SAL  48  1  48
M  SED  48 [#1&h0]
M  SAL  49  1  49
M  SED  49 [#1&h0]
M  SAL  50  1  50
M  SED  50 [#1&h0]
M  END
>  <Activity>  (66) 
0.01

>  <Mapped(file=2032.csv.activities,property=Cached(PUBCHEM_COMPOUND_CID))>  (66) 
100

>  <MatchIndices>  (66) 
155 

>  <PUBCHEM_ATOM_DEF_STEREO_COUNT>  (66) 
0

>  <PUBCHEM_ATOM_UDEF_STEREO_COUNT>  (66) 
0

>  <PUBCHEM_BONDANNOTATIONS>  (66) 
10  15  8
14  17  8
15  17  8
2  10  8
2  11  8
21  22  8
21  23  8
22  25  8
23  26  8
25  27  8
26  27  8
7  10  8
7  8  8
7  9  8
8  11  8
9  14  8

>  <PUBCHEM_BOND_DEF_STEREO_COUNT>  (66) 
0

>  <PUBCHEM_BOND_UDEF_STEREO_COUNT>  (66) 
0

>  <PUBCHEM_CACTVS_COMPLEXITY>  (66) 
483

>  <PUBCHEM_CACTVS_HBOND_ACCEPTOR>  (66) 
6

>  <PUBCHEM_CACTVS_HBOND_DONOR>  (66) 
1

>  <PUBCHEM_CACTVS_ROTATABLE_BOND>  (66) 
8

>  <PUBCHEM_CACTVS_SUBSKEYS>  (66) 
AAADceB6OABAAAAAAAAAAAAAAAAAASAAAAAwYAAAAAAAAEgB9AAAHgQACAAADATF2AayD8MABkiIAqDSCACCCAAkKBAIiBkODMgMJjKmtRuGeSjmwBEouYf///7ugQABAAAYAAACAAIAADAAAAAAAAAAAA==

>  <PUBCHEM_CACTVS_TAUTO_COUNT>  (66) 
3

>  <PUBCHEM_CACTVS_TPSA>  (66) 
88.2

>  <PUBCHEM_COMPONENT_COUNT>  (66) 
1

>  <PUBCHEM_COMPOUND_CANONICALIZED>  (66) 
1

>  <PUBCHEM_COMPOUND_CID>  (66) 
1889549

>  <PUBCHEM_COORDINATE_TYPE>  (66) 
1
5
255

>  <PUBCHEM_EXACT_MASS>  (66) 
385.134779

>  <PUBCHEM_HEAVY_ATOM_COUNT>  (66) 
27

>  <PUBCHEM_ISOTOPIC_ATOM_COUNT>  (66) 
0

>  <PUBCHEM_IUPAC_CAS_NAME>  (66) 
2-[4-[(dimethylamino)methyl]-5-hydroxy-2-[(phenylthio)methyl]-3-benzofuranyl]acetic acid methyl ester

>  <PUBCHEM_IUPAC_INCHI>  (66) 
InChI=1S/C21H23NO4S/c1-22(2)12-16-17(23)9-10-18-21(16)15(11-20(24)25-3)19(26-18)13-27-14-7-5-4-6-8-14/h4-10,23H,11-13H2,1-3H3

>  <PUBCHEM_IUPAC_INCHIKEY>  (66) 
LCPQQYOICPPWPQ-UHFFFAOYSA-N

>  <PUBCHEM_IUPAC_NAME>  (66) 
methyl 2-[4-[(dimethylamino)methyl]-5-hydroxy-2-(phenylsulfanylmethyl)-1-benzofuran-3-yl]acetate

>  <PUBCHEM_IUPAC_OPENEYE_NAME>  (66) 
methyl 2-[4-[(dimethylamino)methyl]-5-hydroxy-2-(phenylsulfanylmethyl)benzofuran-3-yl]acetate

>  <PUBCHEM_IUPAC_SYSTEMATIC_NAME>  (66) 
methyl 2-[4-[(dimethylamino)methyl]-5-oxidanyl-2-(phenylsulfanylmethyl)-1-benzofuran-3-yl]ethanoate

>  <PUBCHEM_IUPAC_TRADITIONAL_NAME>  (66) 
2-[4-[(dimethylamino)methyl]-5-hydroxy-2-[(phenylthio)methyl]benzofuran-3-yl]acetic acid methyl ester

>  <PUBCHEM_MOLECULAR_FORMULA>  (66) 
C21H23NO4S

>  <PUBCHEM_MOLECULAR_WEIGHT>  (66) 
385.47662

>  <PUBCHEM_MONOISOTOPIC_WEIGHT>  (66) 
385.134779

>  <PUBCHEM_OPENEYE_CAN_SMILES>  (66) 
CN(C)CC1=C(C=CC2=C1C(=C(O2)CSC3=CC=CC=C3)CC(=O)OC)O

>  <PUBCHEM_OPENEYE_ISO_SMILES>  (66) 
CN(C)CC1=C(C=CC2=C1C(=C(O2)CSC3=CC=CC=C3)CC(=O)OC)O

>  <PUBCHEM_TOTAL_CHARGE>  (66) 
0

>  <PUBCHEM_XLOGP3_AA>  (66) 
3.6

$$$$
Largest isolated from Written by BCL::WriteToMDL,2933952
     RDKit          2D

 41 42  0 41  0  0  0  0  0  0999 V2000
    2.2379   -0.9592    0.0000 O   0  0  0  0  0  0  0  0  0  0  0  0
   -2.0071   -2.4527    0.0000 N   0  0  0  0  0  0  0  0  0  0  0  0
   -0.5921   -1.9549    0.0000 C   0  0  0  0  0  0  0  0  0  0  0  0
   -3.1457   -1.4762    0.0000 C   0  0  0  0  0  0  0  0  0  0  0  0
    0.8229   -1.4570    0.0000 C   0  0  0  0  0  0  0  0  0  0  0  0
    3.9292    1.0129    0.0000 C   0  0  0  0  0  0  0  0  0  0  0  0
    2.5142    0.5151    0.0000 C   0  0  0  0  0  0  0  0  0  0  0  0
   -4.2843   -0.4997    0.0000 C   0  0  0  0  0  0  0  0  0  0  0  0
    5.0678    0.0364    0.0000 C   0  0  0  0  0  0  0  0  0  0  0  0
    4.2056    2.4872    0.0000 C   0  0  0  0  0  0  0  0  0  0  0  0
    1.3756    1.4916    0.0000 C   0  0  0  0  0  0  0  0  0  0  0  0
   -4.0079    0.9746    0.0000 C   0  0  0  0  0  0  0  0  0  0  0  0
   -5.6993   -0.9975    0.0000 C   0  0  0  0  0  0  0  0  0  0  0  0
    3.0670    3.4637    0.0000 C   0  0  0  0  0  0  0  0  0  0  0  0
    1.6520    2.9659    0.0000 C   0  0  0  0  0  0  0  0  0  0  0  0
   -5.1466    1.9512    0.0000 C   0  0  0  0  0  0  0  0  0  0  0  0
   -6.8379   -0.0210    0.0000 C   0  0  0  0  0  0  0  0  0  0  0  0
    6.2064   -0.9401    0.0000 C   0  0  0  0  0  0  0  0  0  0  0  0
   -6.5615    1.4533    0.0000 C   0  0  0  0  0  0  0  0  0  0  0  0
    5.9301   -2.4144    0.0000 C   0  0  0  0  0  0  0  0  0  0  0  0
   -0.0943   -3.3698    0.0000 H   0  0  0  0  0  0  0  0  0  0  0  0
   -1.0899   -0.5399    0.0000 H   0  0  0  0  0  0  0  0  0  0  0  0
   -4.1222   -2.6148    0.0000 H   0  0  0  0  0  0  0  0  0  0  0  0
   -2.1692   -0.3376    0.0000 H   0  0  0  0  0  0  0  0  0  0  0  0
    1.3207   -2.8720    0.0000 H   0  0  0  0  0  0  0  0  0  0  0  0
    0.3251   -0.0421    0.0000 H   0  0  0  0  0  0  0  0  0  0  0  0
   -2.2835   -3.9270    0.0000 H   0  0  0  0  0  0  0  0  0  0  0  0
    4.0913   -1.1022    0.0000 H   0  0  0  0  0  0  0  0  0  0  0  0
    6.0443    1.1750    0.0000 H   0  0  0  0  0  0  0  0  0  0  0  0
    5.6206    2.9850    0.0000 H   0  0  0  0  0  0  0  0  0  0  0  0
   -0.0394    0.9938    0.0000 H   0  0  0  0  0  0  0  0  0  0  0  0
   -2.5930    1.4725    0.0000 H   0  0  0  0  0  0  0  0  0  0  0  0
   -5.9757   -2.4718    0.0000 H   0  0  0  0  0  0  0  0  0  0  0  0
    3.3433    4.9381    0.0000 H   0  0  0  0  0  0  0  0  0  0  0  0
    0.5134    3.9424    0.0000 H   0  0  0  0  0  0  0  0  0  0  0  0
   -4.8702    3.4255    0.0000 H   0  0  0  0  0  0  0  0  0  0  0  0
   -8.2529   -0.5188    0.0000 H   0  0  0  0  0  0  0  0  0  0  0  0
    7.6214   -0.4423    0.0000 H   0  0  0  0  0  0  0  0  0  0  0  0
   -7.7002    2.4298    0.0000 H   0  0  0  0  0  0  0  0  0  0  0  0
    7.0687   -3.3909    0.0000 H   0  0  0  0  0  0  0  0  0  0  0  0
    4.5151   -2.9122    0.0000 H   0  0  0  0  0  0  0  0  0  0  0  0
  1  5  1  0
  1  7  1  0
  2  3  1  0
  2  4  1  0
  2 27  1  0
  3  5  1  0
  3 21  1  0
  3 22  1  0
  4  8  1  0
  4 23  1  0
  4 24  1  0
  5 25  1  0
  5 26  1  0
  6  7  2  0
  6  9  1  0
  6 10  1  0
  7 11  1  0
  8 12  2  0
  8 13  1  0
  9 18  1  0
  9 28  1  0
  9 29  1  0
 10 14  2  0
 10 30  1  0
 11 15  2  0
 11 31  1  0
 12 16  1  0
 12 32  1  0
 13 17  2  0
 13 33  1  0
 14 15  1  0
 14 34  1  0
 15 35  1  0
 16 19  2  0
 16 36  1  0
 17 19  1  0
 17 37  1  0
 18 20  2  0
 18 38  1  0
 19 39  1  0
 20 40  1  0
 20 41  1  0
M  STY  8   1 DAT   2 DAT   3 DAT   4 DAT   5 DAT   6 DAT   7 DAT   8 DAT
M  STY  8   9 DAT  10 DAT  11 DAT  12 DAT  13 DAT  14 DAT  15 DAT  16 DAT
M  STY  8  17 DAT  18 DAT  19 DAT  20 DAT  21 DAT  22 DAT  23 DAT  24 DAT
M  STY  8  25 DAT  26 DAT  27 DAT  28 DAT  29 DAT  30 DAT  31 DAT  32 DAT
M  STY  8  33 DAT  34 DAT  35 DAT  36 DAT  37 DAT  38 DAT  39 DAT  40 DAT
M  STY  1  41 DAT
M  SAL   1  1   1
M  SED   1 [#8&h0]
M  SAL   2  1   2
M  SED   2 [#7&h0]
M  SAL   3  1   3
M  SED   3 [#6&h0]
M  SAL   4  1   4
M  SED   4 [#6&h0]
M  SAL   5  1   5
M  SED   5 [#6&h0]
M  SAL   6  1   6
M  SED   6 [#6&h0]
M  SAL   7  1   7
M  SED   7 [#6&h0]
M  SAL   8  1   8
M  SED   8 [#6&h0]
M  SAL   9  1   9
M  SED   9 [#6&h0]
M  SAL  10  1  10
M  SED  10 [#6&h0]
M  SAL  11  1  11
M  SED  11 [#6&h0]
M  SAL  12  1  12
M  SED  12 [#6&h0]
M  SAL  13  1  13
M  SED  13 [#6&h0]
M  SAL  14  1  14
M  SED  14 [#6&h0]
M  SAL  15  1  15
M  SED  15 [#6&h0]
M  SAL  16  1  16
M  SED  16 [#6&h0]
M  SAL  17  1  17
M  SED  17 [#6&h0]
M  SAL  18  1  18
M  SED  18 [#6&h0]
M  SAL  19  1  19
M  SED  19 [#6&h0]
M  SAL  20  1  20
M  SED  20 [#6&h0]
M  SAL  21  1  21
M  SED  21 [#1&h0]
M  SAL  22  1  22
M  SED  22 [#1&h0]
M  SAL  23  1  23
M  SED  23 [#1&h0]
M  SAL  24  1  24
M  SED  24 [#1&h0]
M  SAL  25  1  25
M  SED  25 [#1&h0]
M  SAL  26  1  26
M  SED  26 [#1&h0]
M  SAL  27  1  27
M  SED  27 [#1&h0]
M  SAL  28  1  28
M  SED  28 [#1&h0]
M  SAL  29  1  29
M  SED  29 [#1&h0]
M  SAL  30  1  30
M  SED  30 [#1&h0]
M  SAL  31  1  31
M  SED  31 [#1&h0]
M  SAL  32  1  32
M  SED  32 [#1&h0]
M  SAL  33  1  33
M  SED  33 [#1&h0]
M  SAL  34  1  34
M  SED  34 [#1&h0]
M  SAL  35  1  35
M  SED  35 [#1&h0]
M  SAL  36  1  36
M  SED  36 [#1&h0]
M  SAL  37  1  37
M  SED  37 [#1&h0]
M  SAL  38  1  38
M  SED  38 [#1&h0]
M  SAL  39  1  39
M  SED  39 [#1&h0]
M  SAL  40  1  40
M  SED  40 [#1&h0]
M  SAL  41  1  41
M  SED  41 [#1&h0]
M  END
>  <Activity>  (67) 
0.01

>  <Mapped(file=2032.csv.activities,property=Cached(PUBCHEM_COMPOUND_CID))>  (67) 
100

>  <MatchIndices>  (67) 
11 

>  <PUBCHEM_ATOM_DEF_STEREO_COUNT>  (67) 
0

>  <PUBCHEM_ATOM_UDEF_STEREO_COUNT>  (67) 
0

>  <PUBCHEM_BONDANNOTATIONS>  (67) 
10  11  8
10  14  8
11  15  8
12  16  8
12  17  8
14  18  8
15  19  8
16  20  8
17  21  8
18  19  8
20  23  8
21  23  8

>  <PUBCHEM_BOND_DEF_STEREO_COUNT>  (67) 
0

>  <PUBCHEM_BOND_UDEF_STEREO_COUNT>  (67) 
0

>  <PUBCHEM_CACTVS_COMPLEXITY>  (67) 
332

>  <PUBCHEM_CACTVS_HBOND_ACCEPTOR>  (67) 
6

>  <PUBCHEM_CACTVS_HBOND_DONOR>  (67) 
3

>  <PUBCHEM_CACTVS_ROTATABLE_BOND>  (67) 
9

>  <PUBCHEM_CACTVS_SUBSKEYS>  (67) 
AAADceB6OAAAAAAAAAAAAAAAAAAAAAAAAAAwYAAAAAAAAAABQAAAHgAQCAAADAThmAYwDoLABgCIAiDSCAKCCAAgIAAIiIBODIgPJiKEsRuHOCjk0BGZqAeQwKAOAAAAAAAIAAAAAAAAABAAAAAAAAAAAA==

>  <PUBCHEM_CACTVS_TAUTO_COUNT>  (67) 
1

>  <PUBCHEM_CACTVS_TPSA>  (67) 
95.9

>  <PUBCHEM_COMPONENT_COUNT>  (67) 
2

>  <PUBCHEM_COMPOUND_CANONICALIZED>  (67) 
1

>  <PUBCHEM_COMPOUND_CID>  (67) 
2933952

>  <PUBCHEM_COORDINATE_TYPE>  (67) 
1
5
255

>  <PUBCHEM_EXACT_MASS>  (67) 
357.157623

>  <PUBCHEM_HEAVY_ATOM_COUNT>  (67) 
26

>  <PUBCHEM_ISOTOPIC_ATOM_COUNT>  (67) 
0

>  <PUBCHEM_IUPAC_CAS_NAME>  (67) 
oxalic acid; N-(phenylmethyl)-2-(2-prop-2-enylphenoxy)ethanamine

>  <PUBCHEM_IUPAC_INCHI>  (67) 
InChI=1S/C18H21NO.C2H2O4/c1-2-8-17-11-6-7-12-18(17)20-14-13-19-15-16-9-4-3-5-10-16;3-1(4)2(5)6/h2-7,9-12,19H,1,8,13-15H2;(H,3,4)(H,5,6)

>  <PUBCHEM_IUPAC_INCHIKEY>  (67) 
JSNFWOJKJIUGSJ-UHFFFAOYSA-N

>  <PUBCHEM_IUPAC_NAME>  (67) 
N-benzyl-2-(2-prop-2-enylphenoxy)ethanamine; oxalic acid

>  <PUBCHEM_IUPAC_OPENEYE_NAME>  (67) 
2-(2-allylphenoxy)-N-benzyl-ethanamine; oxalic acid

>  <PUBCHEM_IUPAC_SYSTEMATIC_NAME>  (67) 
ethanedioic acid; N-(phenylmethyl)-2-(2-prop-2-enylphenoxy)ethanamine

>  <PUBCHEM_IUPAC_TRADITIONAL_NAME>  (67) 
2-(2-allylphenoxy)ethyl-benzyl-amine; oxalic acid

>  <PUBCHEM_MOLECULAR_FORMULA>  (67) 
C20H23NO5

>  <PUBCHEM_MOLECULAR_WEIGHT>  (67) 
357.40032

>  <PUBCHEM_MONOISOTOPIC_WEIGHT>  (67) 
357.157623

>  <PUBCHEM_OPENEYE_CAN_SMILES>  (67) 
C=CCC1=CC=CC=C1OCCNCC2=CC=CC=C2.C(=O)(C(=O)O)O

>  <PUBCHEM_OPENEYE_ISO_SMILES>  (67) 
C=CCC1=CC=CC=C1OCCNCC2=CC=CC=C2.C(=O)(C(=O)O)O

>  <PUBCHEM_TOTAL_CHARGE>  (67) 
0

$$$$
Largest isolated from Written by BCL::WriteToMDL,18273725
     RDKit          2D

 38 39  0 38  0  0  0  0  0  0999 V2000
    6.0628   -3.6980    0.0000 Cl  0  0  0  0  0  0  0  0  0  0  0  0
    1.2512   -0.1135    0.0000 S   0  0  0  0  0  0  0  0  0  0  0  0
    1.8019    0.4630    0.0000 O   0  0  0  0  0  0  0  0  0  0  0  0
    0.3551   -1.3164    0.0000 O   0  0  0  0  0  0  0  0  0  0  0  0
    0.0484    0.7826    0.0000 N   0  0  0  0  0  0  0  0  0  0  0  0
    3.4824   -3.3956    0.0000 N   0  0  0  0  0  0  0  0  0  0  0  0
    0.2230    2.2724    0.0000 C   0  0  0  0  0  0  0  0  0  0  0  0
   -1.3292    0.1890    0.0000 C   0  0  0  0  0  0  0  0  0  0  0  0
    1.7128    2.0978    0.0000 C   0  0  0  0  0  0  0  0  0  0  0  0
    0.3976    3.7622    0.0000 C   0  0  0  0  0  0  0  0  0  0  0  0
   -2.7067   -0.4047    0.0000 C   0  0  0  0  0  0  0  0  0  0  0  0
    2.4541   -1.0096    0.0000 C   0  0  0  0  0  0  0  0  0  0  0  0
   -3.9096    0.4914    0.0000 C   0  0  0  0  0  0  0  0  0  0  0  0
   -2.8813   -1.8945    0.0000 C   0  0  0  0  0  0  0  0  0  0  0  0
    3.8317   -0.4160    0.0000 C   0  0  0  0  0  0  0  0  0  0  0  0
    2.2795   -2.4994    0.0000 C   0  0  0  0  0  0  0  0  0  0  0  0
   -5.2871   -0.1022    0.0000 C   0  0  0  0  0  0  0  0  0  0  0  0
   -4.2588   -2.4882    0.0000 C   0  0  0  0  0  0  0  0  0  0  0  0
    5.0345   -1.3121    0.0000 C   0  0  0  0  0  0  0  0  0  0  0  0
   -5.4617   -1.5920    0.0000 C   0  0  0  0  0  0  0  0  0  0  0  0
    4.8599   -2.8019    0.0000 C   0  0  0  0  0  0  0  0  0  0  0  0
   -1.2668    2.4471    0.0000 H   0  0  0  0  0  0  0  0  0  0  0  0
   -1.9228    1.5665    0.0000 H   0  0  0  0  0  0  0  0  0  0  0  0
   -0.7355   -1.1885    0.0000 H   0  0  0  0  0  0  0  0  0  0  0  0
    1.2833    3.7671    0.0000 H   0  0  0  0  0  0  0  0  0  0  0  0
   -1.0922    3.9369    0.0000 H   0  0  0  0  0  0  0  0  0  0  0  0
    1.9224    2.9584    0.0000 H   0  0  0  0  0  0  0  0  0  0  0  0
    1.9319    1.2396    0.0000 H   0  0  0  0  0  0  0  0  0  0  0  0
    3.2026    1.9232    0.0000 H   0  0  0  0  0  0  0  0  0  0  0  0
    0.5723    5.2520    0.0000 H   0  0  0  0  0  0  0  0  0  0  0  0
   -3.7349    1.9812    0.0000 H   0  0  0  0  0  0  0  0  0  0  0  0
   -1.6784   -2.7906    0.0000 H   0  0  0  0  0  0  0  0  0  0  0  0
    4.0063    1.0738    0.0000 H   0  0  0  0  0  0  0  0  0  0  0  0
    0.9020   -3.0931    0.0000 H   0  0  0  0  0  0  0  0  0  0  0  0
   -6.4900    0.7939    0.0000 H   0  0  0  0  0  0  0  0  0  0  0  0
   -4.4335   -3.9780    0.0000 H   0  0  0  0  0  0  0  0  0  0  0  0
    6.4121   -0.7184    0.0000 H   0  0  0  0  0  0  0  0  0  0  0  0
   -6.8392   -2.1857    0.0000 H   0  0  0  0  0  0  0  0  0  0  0  0
  1 21  1  0
  2  3  2  0
  2  4  2  0
  2  5  1  0
  2 12  1  0
  5  7  1  0
  5  8  1  0
  6 16  2  0
  6 21  1  0
  7  9  1  0
  7 10  1  0
  7 22  1  0
  8 11  1  0
  8 23  1  0
  8 24  1  0
  9 27  1  0
  9 28  1  0
  9 29  1  0
 10 25  1  0
 10 26  1  0
 10 30  1  0
 11 13  2  0
 11 14  1  0
 12 15  2  0
 12 16  1  0
 13 17  1  0
 13 31  1  0
 14 18  2  0
 14 32  1  0
 15 19  1  0
 15 33  1  0
 16 34  1  0
 17 20  2  0
 17 35  1  0
 18 20  1  0
 18 36  1  0
 19 21  2  0
 19 37  1  0
 20 38  1  0
M  STY  8   1 DAT   2 DAT   3 DAT   4 DAT   5 DAT   6 DAT   7 DAT   8 DAT
M  STY  8   9 DAT  10 DAT  11 DAT  12 DAT  13 DAT  14 DAT  15 DAT  16 DAT
M  STY  8  17 DAT  18 DAT  19 DAT  20 DAT  21 DAT  22 DAT  23 DAT  24 DAT
M  STY  8  25 DAT  26 DAT  27 DAT  28 DAT  29 DAT  30 DAT  31 DAT  32 DAT
M  STY  6  33 DAT  34 DAT  35 DAT  36 DAT  37 DAT  38 DAT
M  SAL   1  1   1
M  SED   1 [#17&h0]
M  SAL   2  1   2
M  SED   2 [#16&h0]
M  SAL   3  1   3
M  SED   3 [#8&h0]
M  SAL   4  1   4
M  SED   4 [#8&h0]
M  SAL   5  1   5
M  SED   5 [#7&h0]
M  SAL   6  1   6
M  SED   6 [#7&h0]
M  SAL   7  1   7
M  SED   7 [#6&h0]
M  SAL   8  1   8
M  SED   8 [#6&h0]
M  SAL   9  1   9
M  SED   9 [#6&h0]
M  SAL  10  1  10
M  SED  10 [#6&h0]
M  SAL  11  1  11
M  SED  11 [#6&h0]
M  SAL  12  1  12
M  SED  12 [#6&h0]
M  SAL  13  1  13
M  SED  13 [#6&h0]
M  SAL  14  1  14
M  SED  14 [#6&h0]
M  SAL  15  1  15
M  SED  15 [#6&h0]
M  SAL  16  1  16
M  SED  16 [#6&h0]
M  SAL  17  1  17
M  SED  17 [#6&h0]
M  SAL  18  1  18
M  SED  18 [#6&h0]
M  SAL  19  1  19
M  SED  19 [#6&h0]
M  SAL  20  1  20
M  SED  20 [#6&h0]
M  SAL  21  1  21
M  SED  21 [#6&h0]
M  SAL  22  1  22
M  SED  22 [#1&h0]
M  SAL  23  1  23
M  SED  23 [#1&h0]
M  SAL  24  1  24
M  SED  24 [#1&h0]
M  SAL  25  1  25
M  SED  25 [#1&h0]
M  SAL  26  1  26
M  SED  26 [#1&h0]
M  SAL  27  1  27
M  SED  27 [#1&h0]
M  SAL  28  1  28
M  SED  28 [#1&h0]
M  SAL  29  1  29
M  SED  29 [#1&h0]
M  SAL  30  1  30
M  SED  30 [#1&h0]
M  SAL  31  1  31
M  SED  31 [#1&h0]
M  SAL  32  1  32
M  SED  32 [#1&h0]
M  SAL  33  1  33
M  SED  33 [#1&h0]
M  SAL  34  1  34
M  SED  34 [#1&h0]
M  SAL  35  1  35
M  SED  35 [#1&h0]
M  SAL  36  1  36
M  SED  36 [#1&h0]
M  SAL  37  1  37
M  SED  37 [#1&h0]
M  SAL  38  1  38
M  SED  38 [#1&h0]
M  END
>  <Activity>  (68) 
0.01

>  <Mapped(file=2032.csv.activities,property=Cached(PUBCHEM_COMPOUND_CID))>  (68) 
100

>  <MatchIndices>  (68) 
107 

>  <PUBCHEM_ATOM_DEF_STEREO_COUNT>  (68) 
0

>  <PUBCHEM_ATOM_UDEF_STEREO_COUNT>  (68) 
0

>  <PUBCHEM_BONDANNOTATIONS>  (68) 
11  13  8
11  14  8
12  15  8
12  16  8
13  17  8
14  18  8
15  19  8
17  20  8
18  20  8
19  21  8
6  16  8
6  21  8

>  <PUBCHEM_BOND_DEF_STEREO_COUNT>  (68) 
0

>  <PUBCHEM_BOND_UDEF_STEREO_COUNT>  (68) 
0

>  <PUBCHEM_CACTVS_COMPLEXITY>  (68) 
416

>  <PUBCHEM_CACTVS_HBOND_ACCEPTOR>  (68) 
4

>  <PUBCHEM_CACTVS_HBOND_DONOR>  (68) 
0

>  <PUBCHEM_CACTVS_ROTATABLE_BOND>  (68) 
5

>  <PUBCHEM_CACTVS_SUBSKEYS>  (68) 
AAADceBzMABEAAAAAAAAAAAAAAAAAAAAAAA8QAAAAAAAAAABwAAAHAYAQAAADCrBWiQ+gZIIEAKgAjBnRHDCgDAxByAI2Dw4ZpgIIOLBk5GEIAhggADIyAcQgAAOAAAAAAAAAAAAAAAAAAAAAAAAAAAAAA==

>  <PUBCHEM_CACTVS_TAUTO_COUNT>  (68) 
1

>  <PUBCHEM_CACTVS_TPSA>  (68) 
58.6

>  <PUBCHEM_COMPONENT_COUNT>  (68) 
1

>  <PUBCHEM_COMPOUND_CANONICALIZED>  (68) 
1

>  <PUBCHEM_COMPOUND_CID>  (68) 
18273725

>  <PUBCHEM_COORDINATE_TYPE>  (68) 
1
5
255

>  <PUBCHEM_EXACT_MASS>  (68) 
324.069926

>  <PUBCHEM_HEAVY_ATOM_COUNT>  (68) 
21

>  <PUBCHEM_ISOTOPIC_ATOM_COUNT>  (68) 
0

>  <PUBCHEM_IUPAC_CAS_NAME>  (68) 
6-chloro-N-(phenylmethyl)-N-propan-2-yl-3-pyridinesulfonamide

>  <PUBCHEM_IUPAC_INCHI>  (68) 
InChI=1S/C15H17ClN2O2S/c1-12(2)18(11-13-6-4-3-5-7-13)21(19,20)14-8-9-15(16)17-10-14/h3-10,12H,11H2,1-2H3

>  <PUBCHEM_IUPAC_INCHIKEY>  (68) 
ANRHSAZLFCYTMP-UHFFFAOYSA-N

>  <PUBCHEM_IUPAC_NAME>  (68) 
N-benzyl-6-chloro-N-propan-2-ylpyridine-3-sulfonamide

>  <PUBCHEM_IUPAC_OPENEYE_NAME>  (68) 
N-benzyl-6-chloro-N-isopropyl-pyridine-3-sulfonamide

>  <PUBCHEM_IUPAC_SYSTEMATIC_NAME>  (68) 
6-chloranyl-N-(phenylmethyl)-N-propan-2-yl-pyridine-3-sulfonamide

>  <PUBCHEM_IUPAC_TRADITIONAL_NAME>  (68) 
N-benzyl-6-chloro-N-isopropyl-pyridine-3-sulfonamide

>  <PUBCHEM_MOLECULAR_FORMULA>  (68) 
C15H17ClN2O2S

>  <PUBCHEM_MOLECULAR_WEIGHT>  (68) 
324.82568

>  <PUBCHEM_MONOISOTOPIC_WEIGHT>  (68) 
324.069926

>  <PUBCHEM_OPENEYE_CAN_SMILES>  (68) 
CC(C)N(CC1=CC=CC=C1)S(=O)(=O)C2=CN=C(C=C2)Cl

>  <PUBCHEM_OPENEYE_ISO_SMILES>  (68) 
CC(C)N(CC1=CC=CC=C1)S(=O)(=O)C2=CN=C(C=C2)Cl

>  <PUBCHEM_TOTAL_CHARGE>  (68) 
0

>  <PUBCHEM_XLOGP3_AA>  (68) 
3.3

$$$$
Largest isolated from Written by BCL::WriteToMDL,2973523
     RDKit          2D

 40 41  0 40  0  0  0  0  0  0999 V2000
    4.0126    1.6606    0.0000 O   0  0  0  0  0  0  0  0  0  0  0  0
    7.1689   -1.5468    0.0000 N   0  0  0  0  0  0  0  0  0  0  0  0
   -1.7953    0.1542    0.0000 C   0  0  0  0  0  0  0  0  0  0  0  0
   -0.3433    0.5308    0.0000 C   0  0  0  0  0  0  0  0  0  0  0  0
   -3.2472   -0.2224    0.0000 C   0  0  0  0  0  0  0  0  0  0  0  0
   -2.1719    1.6062    0.0000 C   0  0  0  0  0  0  0  0  0  0  0  0
   -1.4187   -1.2977    0.0000 C   0  0  0  0  0  0  0  0  0  0  0  0
    0.7088   -0.5383    0.0000 C   0  0  0  0  0  0  0  0  0  0  0  0
    0.0565    1.9766    0.0000 C   0  0  0  0  0  0  0  0  0  0  0  0
   -3.6470   -1.6681    0.0000 C   0  0  0  0  0  0  0  0  0  0  0  0
   -4.2993    0.8468    0.0000 C   0  0  0  0  0  0  0  0  0  0  0  0
    2.1608   -0.1617    0.0000 C   0  0  0  0  0  0  0  0  0  0  0  0
    1.5085    2.3532    0.0000 C   0  0  0  0  0  0  0  0  0  0  0  0
    2.5606    1.2840    0.0000 C   0  0  0  0  0  0  0  0  0  0  0  0
   -5.0990   -2.0447    0.0000 C   0  0  0  0  0  0  0  0  0  0  0  0
   -5.7513    0.4702    0.0000 C   0  0  0  0  0  0  0  0  0  0  0  0
   -6.1511   -0.9756    0.0000 C   0  0  0  0  0  0  0  0  0  0  0  0
    5.0647    0.5915    0.0000 C   0  0  0  0  0  0  0  0  0  0  0  0
    6.1168   -0.4776    0.0000 C   0  0  0  0  0  0  0  0  0  0  0  0
   -2.1967   -1.7209    0.0000 H   0  0  0  0  0  0  0  0  0  0  0  0
   -0.5330   -1.2894    0.0000 H   0  0  0  0  0  0  0  0  0  0  0  0
   -1.0421   -2.7497    0.0000 H   0  0  0  0  0  0  0  0  0  0  0  0
   -3.6718    1.5921    0.0000 H   0  0  0  0  0  0  0  0  0  0  0  0
   -1.3938    2.0294    0.0000 H   0  0  0  0  0  0  0  0  0  0  0  0
   -2.5484    3.0582    0.0000 H   0  0  0  0  0  0  0  0  0  0  0  0
    0.4727   -1.3920    0.0000 H   0  0  0  0  0  0  0  0  0  0  0  0
   -0.5647    2.6079    0.0000 H   0  0  0  0  0  0  0  0  0  0  0  0
   -3.0258   -2.2994    0.0000 H   0  0  0  0  0  0  0  0  0  0  0  0
   -3.8995    2.2925    0.0000 H   0  0  0  0  0  0  0  0  0  0  0  0
    3.2129   -1.2308    0.0000 H   0  0  0  0  0  0  0  0  0  0  0  0
    1.9083    3.7989    0.0000 H   0  0  0  0  0  0  0  0  0  0  0  0
   -5.4988   -3.4904    0.0000 H   0  0  0  0  0  0  0  0  0  0  0  0
   -6.8034    1.5393    0.0000 H   0  0  0  0  0  0  0  0  0  0  0  0
   -7.6031   -1.3521    0.0000 H   0  0  0  0  0  0  0  0  0  0  0  0
    6.1338    1.6436    0.0000 H   0  0  0  0  0  0  0  0  0  0  0  0
    3.9956   -0.4606    0.0000 H   0  0  0  0  0  0  0  0  0  0  0  0
    7.1859    0.5745    0.0000 H   0  0  0  0  0  0  0  0  0  0  0  0
    5.0477   -1.5298    0.0000 H   0  0  0  0  0  0  0  0  0  0  0  0
    8.6209   -1.1702    0.0000 H   0  0  0  0  0  0  0  0  0  0  0  0
    6.7691   -2.9925    0.0000 H   0  0  0  0  0  0  0  0  0  0  0  0
  1 14  1  0
  1 18  1  0
  2 19  1  0
  2 39  1  0
  2 40  1  0
  3  4  1  0
  3  5  1  0
  3  6  1  0
  3  7  1  0
  4  8  2  0
  4  9  1  0
  5 10  2  0
  5 11  1  0
  6 23  1  0
  6 24  1  0
  6 25  1  0
  7 20  1  0
  7 21  1  0
  7 22  1  0
  8 12  1  0
  8 26  1  0
  9 13  2  0
  9 27  1  0
 10 15  1  0
 10 28  1  0
 11 16  2  0
 11 29  1  0
 12 14  2  0
 12 30  1  0
 13 14  1  0
 13 31  1  0
 15 17  2  0
 15 32  1  0
 16 17  1  0
 16 33  1  0
 17 34  1  0
 18 19  1  0
 18 35  1  0
 18 36  1  0
 19 37  1  0
 19 38  1  0
M  STY  8   1 DAT   2 DAT   3 DAT   4 DAT   5 DAT   6 DAT   7 DAT   8 DAT
M  STY  8   9 DAT  10 DAT  11 DAT  12 DAT  13 DAT  14 DAT  15 DAT  16 DAT
M  STY  8  17 DAT  18 DAT  19 DAT  20 DAT  21 DAT  22 DAT  23 DAT  24 DAT
M  STY  8  25 DAT  26 DAT  27 DAT  28 DAT  29 DAT  30 DAT  31 DAT  32 DAT
M  STY  8  33 DAT  34 DAT  35 DAT  36 DAT  37 DAT  38 DAT  39 DAT  40 DAT
M  SAL   1  1   1
M  SED   1 [#8&h0]
M  SAL   2  1   2
M  SED   2 [#7&h0]
M  SAL   3  1   3
M  SED   3 [#6&h0]
M  SAL   4  1   4
M  SED   4 [#6&h0]
M  SAL   5  1   5
M  SED   5 [#6&h0]
M  SAL   6  1   6
M  SED   6 [#6&h0]
M  SAL   7  1   7
M  SED   7 [#6&h0]
M  SAL   8  1   8
M  SED   8 [#6&h0]
M  SAL   9  1   9
M  SED   9 [#6&h0]
M  SAL  10  1  10
M  SED  10 [#6&h0]
M  SAL  11  1  11
M  SED  11 [#6&h0]
M  SAL  12  1  12
M  SED  12 [#6&h0]
M  SAL  13  1  13
M  SED  13 [#6&h0]
M  SAL  14  1  14
M  SED  14 [#6&h0]
M  SAL  15  1  15
M  SED  15 [#6&h0]
M  SAL  16  1  16
M  SED  16 [#6&h0]
M  SAL  17  1  17
M  SED  17 [#6&h0]
M  SAL  18  1  18
M  SED  18 [#6&h0]
M  SAL  19  1  19
M  SED  19 [#6&h0]
M  SAL  20  1  20
M  SED  20 [#1&h0]
M  SAL  21  1  21
M  SED  21 [#1&h0]
M  SAL  22  1  22
M  SED  22 [#1&h0]
M  SAL  23  1  23
M  SED  23 [#1&h0]
M  SAL  24  1  24
M  SED  24 [#1&h0]
M  SAL  25  1  25
M  SED  25 [#1&h0]
M  SAL  26  1  26
M  SED  26 [#1&h0]
M  SAL  27  1  27
M  SED  27 [#1&h0]
M  SAL  28  1  28
M  SED  28 [#1&h0]
M  SAL  29  1  29
M  SED  29 [#1&h0]
M  SAL  30  1  30
M  SED  30 [#1&h0]
M  SAL  31  1  31
M  SED  31 [#1&h0]
M  SAL  32  1  32
M  SED  32 [#1&h0]
M  SAL  33  1  33
M  SED  33 [#1&h0]
M  SAL  34  1  34
M  SED  34 [#1&h0]
M  SAL  35  1  35
M  SED  35 [#1&h0]
M  SAL  36  1  36
M  SED  36 [#1&h0]
M  SAL  37  1  37
M  SED  37 [#1&h0]
M  SAL  38  1  38
M  SED  38 [#1&h0]
M  SAL  39  1  39
M  SED  39 [#1&h0]
M  SAL  40  1  40
M  SED  40 [#1&h0]
M  END
>  <Activity>  (69) 
0.01

>  <Mapped(file=2032.csv.activities,property=Cached(PUBCHEM_COMPOUND_CID))>  (69) 
100

>  <MatchIndices>  (69) 
102 

>  <PUBCHEM_ATOM_DEF_STEREO_COUNT>  (69) 
0

>  <PUBCHEM_ATOM_UDEF_STEREO_COUNT>  (69) 
0

>  <PUBCHEM_BONDANNOTATIONS>  (69) 
10  14  8
11  16  8
12  17  8
13  15  8
14  15  8
16  18  8
17  18  8
5  10  8
5  9  8
6  11  8
6  12  8
9  13  8

>  <PUBCHEM_BOND_DEF_STEREO_COUNT>  (69) 
0

>  <PUBCHEM_BOND_UDEF_STEREO_COUNT>  (69) 
0

>  <PUBCHEM_CACTVS_COMPLEXITY>  (69) 
250

>  <PUBCHEM_CACTVS_HBOND_ACCEPTOR>  (69) 
2

>  <PUBCHEM_CACTVS_HBOND_DONOR>  (69) 
2

>  <PUBCHEM_CACTVS_ROTATABLE_BOND>  (69) 
5

>  <PUBCHEM_CACTVS_SUBSKEYS>  (69) 
AAADceB6IAAEAAAAAAAAAAAAAAAAAAAAAAAwYAAAAAAAAAABQAAAHgAQAAAADgThmAYyBoBABACAAiBCAAACCAAgIAAIiIAGCIgOJiKEMRqDOCCk0BEIqAeAwPAPoAAAAAAAAABAAAAAAAAAAAAAAAAAAA==

>  <PUBCHEM_CACTVS_TAUTO_COUNT>  (69) 
1

>  <PUBCHEM_CACTVS_TPSA>  (69) 
35.2

>  <PUBCHEM_COMPONENT_COUNT>  (69) 
2

>  <PUBCHEM_COMPOUND_CANONICALIZED>  (69) 
1

>  <PUBCHEM_COMPOUND_CID>  (69) 
2973523

>  <PUBCHEM_COORDINATE_TYPE>  (69) 
1
5
255

>  <PUBCHEM_EXACT_MASS>  (69) 
291.138992

>  <PUBCHEM_HEAVY_ATOM_COUNT>  (69) 
20

>  <PUBCHEM_ISOTOPIC_ATOM_COUNT>  (69) 
0

>  <PUBCHEM_IUPAC_CAS_NAME>  (69) 
2-[4-(2-phenylpropan-2-yl)phenoxy]ethanamine hydrochloride

>  <PUBCHEM_IUPAC_INCHI>  (69) 
InChI=1S/C17H21NO.ClH/c1-17(2,14-6-4-3-5-7-14)15-8-10-16(11-9-15)19-13-12-18;/h3-11H,12-13,18H2,1-2H3;1H

>  <PUBCHEM_IUPAC_INCHIKEY>  (69) 
HTTQZYJSFAMGOK-UHFFFAOYSA-N

>  <PUBCHEM_IUPAC_NAME>  (69) 
2-[4-(2-phenylpropan-2-yl)phenoxy]ethanamine hydrochloride

>  <PUBCHEM_IUPAC_OPENEYE_NAME>  (69) 
2-[4-(1-methyl-1-phenyl-ethyl)phenoxy]ethanamine hydrochloride

>  <PUBCHEM_IUPAC_SYSTEMATIC_NAME>  (69) 
2-[4-(2-phenylpropan-2-yl)phenoxy]ethanamine hydrochloride

>  <PUBCHEM_IUPAC_TRADITIONAL_NAME>  (69) 
2-(4-cumylphenoxy)ethylamine hydrochloride

>  <PUBCHEM_MOLECULAR_FORMULA>  (69) 
C17H22ClNO

>  <PUBCHEM_MOLECULAR_WEIGHT>  (69) 
291.81568

>  <PUBCHEM_MONOISOTOPIC_WEIGHT>  (69) 
291.138992

>  <PUBCHEM_OPENEYE_CAN_SMILES>  (69) 
CC(C)(C1=CC=CC=C1)C2=CC=C(C=C2)OCCN.Cl

>  <PUBCHEM_OPENEYE_ISO_SMILES>  (69) 
CC(C)(C1=CC=CC=C1)C2=CC=C(C=C2)OCCN.Cl

>  <PUBCHEM_TOTAL_CHARGE>  (69) 
0

$$$$
Largest isolated from Written by BCL::WriteToMDL,1288666
     RDKit          2D

 46 48  0 46  0  0  0  0  0  0999 V2000
    0.1889    2.0225    0.0000 S   0  0  0  0  0  0  0  0  0  0  0  0
   -2.9319   -2.1321    0.0000 O   0  0  0  0  0  0  0  0  0  0  0  0
    5.1193   -3.0752    0.0000 O   0  0  0  0  0  0  0  0  0  0  0  0
    7.3519   -2.1235    0.0000 O   0  0  0  0  0  0  0  0  0  0  0  0
    0.7771    0.6426    0.0000 O   0  0  0  0  0  0  0  0  0  0  0  0
   -0.1477    3.1899    0.0000 O   0  0  0  0  0  0  0  0  0  0  0  0
    1.5688    2.6107    0.0000 N   0  0  0  0  0  0  0  0  0  0  0  0
   -1.1909    1.4343    0.0000 C   0  0  0  0  0  0  0  0  0  0  0  0
   -2.3902    2.3352    0.0000 C   0  0  0  0  0  0  0  0  0  0  0  0
    2.7681    1.7098    0.0000 C   0  0  0  0  0  0  0  0  0  0  0  0
    3.9675    0.8089    0.0000 C   0  0  0  0  0  0  0  0  0  0  0  0
   -1.3715   -0.0548    0.0000 C   0  0  0  0  0  0  0  0  0  0  0  0
   -3.9506    0.2579    0.0000 C   0  0  0  0  0  0  0  0  0  0  0  0
   -2.7513   -0.6430    0.0000 C   0  0  0  0  0  0  0  0  0  0  0  0
   -3.7701    1.7470    0.0000 C   0  0  0  0  0  0  0  0  0  0  0  0
    3.7869   -0.6802    0.0000 C   0  0  0  0  0  0  0  0  0  0  0  0
    4.9863   -1.5811    0.0000 C   0  0  0  0  0  0  0  0  0  0  0  0
   -2.2097    3.8243    0.0000 C   0  0  0  0  0  0  0  0  0  0  0  0
    5.3473    1.3971    0.0000 C   0  0  0  0  0  0  0  0  0  0  0  0
    6.3661   -0.9929    0.0000 C   0  0  0  0  0  0  0  0  0  0  0  0
    6.5467    0.4962    0.0000 C   0  0  0  0  0  0  0  0  0  0  0  0
   -5.3305   -0.3303    0.0000 C   0  0  0  0  0  0  0  0  0  0  0  0
    6.5813   -3.4104    0.0000 C   0  0  0  0  0  0  0  0  0  0  0  0
   -4.3117   -2.7203    0.0000 C   0  0  0  0  0  0  0  0  0  0  0  0
   -5.6916   -3.3085    0.0000 C   0  0  0  0  0  0  0  0  0  0  0  0
    3.6690    2.9091    0.0000 H   0  0  0  0  0  0  0  0  0  0  0  0
    1.8672    0.5104    0.0000 H   0  0  0  0  0  0  0  0  0  0  0  0
    1.7493    4.0998    0.0000 H   0  0  0  0  0  0  0  0  0  0  0  0
   -0.1721   -0.9557    0.0000 H   0  0  0  0  0  0  0  0  0  0  0  0
   -4.9694    2.6479    0.0000 H   0  0  0  0  0  0  0  0  0  0  0  0
    2.4071   -1.2684    0.0000 H   0  0  0  0  0  0  0  0  0  0  0  0
   -0.9947    3.8261    0.0000 H   0  0  0  0  0  0  0  0  0  0  0  0
   -3.6988    4.0048    0.0000 H   0  0  0  0  0  0  0  0  0  0  0  0
   -2.0292    5.3134    0.0000 H   0  0  0  0  0  0  0  0  0  0  0  0
    5.5279    2.8862    0.0000 H   0  0  0  0  0  0  0  0  0  0  0  0
    7.9265    1.0844    0.0000 H   0  0  0  0  0  0  0  0  0  0  0  0
   -5.9187    1.0495    0.0000 H   0  0  0  0  0  0  0  0  0  0  0  0
   -5.1096   -1.0963    0.0000 H   0  0  0  0  0  0  0  0  0  0  0  0
   -6.7104   -0.9185    0.0000 H   0  0  0  0  0  0  0  0  0  0  0  0
    6.0951   -4.8294    0.0000 H   0  0  0  0  0  0  0  0  0  0  0  0
    7.9418   -4.0423    0.0000 H   0  0  0  0  0  0  0  0  0  0  0  0
   -3.7235   -4.1002    0.0000 H   0  0  0  0  0  0  0  0  0  0  0  0
   -4.7114   -2.0306    0.0000 H   0  0  0  0  0  0  0  0  0  0  0  0
   -5.1034   -4.6884    0.0000 H   0  0  0  0  0  0  0  0  0  0  0  0
   -6.2798   -1.9287    0.0000 H   0  0  0  0  0  0  0  0  0  0  0  0
   -7.0714   -3.8967    0.0000 H   0  0  0  0  0  0  0  0  0  0  0  0
  1  5  2  0
  1  6  2  0
  1  7  1  0
  1  8  1  0
  2 14  1  0
  2 24  1  0
  3 17  1  0
  3 23  1  0
  4 20  1  0
  4 23  1  0
  7 10  1  0
  7 28  1  0
  8  9  2  0
  8 12  1  0
  9 15  1  0
  9 18  1  0
 10 11  1  0
 10 26  1  0
 10 27  1  0
 11 16  1  0
 11 19  2  0
 12 14  2  0
 12 29  1  0
 13 14  1  0
 13 15  2  0
 13 22  1  0
 15 30  1  0
 16 17  2  0
 16 31  1  0
 17 20  1  0
 18 32  1  0
 18 33  1  0
 18 34  1  0
 19 21  1  0
 19 35  1  0
 20 21  2  0
 21 36  1  0
 22 37  1  0
 22 38  1  0
 22 39  1  0
 23 40  1  0
 23 41  1  0
 24 25  1  0
 24 42  1  0
 24 43  1  0
 25 44  1  0
 25 45  1  0
 25 46  1  0
M  STY  8   1 DAT   2 DAT   3 DAT   4 DAT   5 DAT   6 DAT   7 DAT   8 DAT
M  STY  8   9 DAT  10 DAT  11 DAT  12 DAT  13 DAT  14 DAT  15 DAT  16 DAT
M  STY  8  17 DAT  18 DAT  19 DAT  20 DAT  21 DAT  22 DAT  23 DAT  24 DAT
M  STY  8  25 DAT  26 DAT  27 DAT  28 DAT  29 DAT  30 DAT  31 DAT  32 DAT
M  STY  8  33 DAT  34 DAT  35 DAT  36 DAT  37 DAT  38 DAT  39 DAT  40 DAT
M  STY  6  41 DAT  42 DAT  43 DAT  44 DAT  45 DAT  46 DAT
M  SAL   1  1   1
M  SED   1 [#16&h0]
M  SAL   2  1   2
M  SED   2 [#8&h0]
M  SAL   3  1   3
M  SED   3 [#8&h0]
M  SAL   4  1   4
M  SED   4 [#8&h0]
M  SAL   5  1   5
M  SED   5 [#8&h0]
M  SAL   6  1   6
M  SED   6 [#8&h0]
M  SAL   7  1   7
M  SED   7 [#7&h0]
M  SAL   8  1   8
M  SED   8 [#6&h0]
M  SAL   9  1   9
M  SED   9 [#6&h0]
M  SAL  10  1  10
M  SED  10 [#6&h0]
M  SAL  11  1  11
M  SED  11 [#6&h0]
M  SAL  12  1  12
M  SED  12 [#6&h0]
M  SAL  13  1  13
M  SED  13 [#6&h0]
M  SAL  14  1  14
M  SED  14 [#6&h0]
M  SAL  15  1  15
M  SED  15 [#6&h0]
M  SAL  16  1  16
M  SED  16 [#6&h0]
M  SAL  17  1  17
M  SED  17 [#6&h0]
M  SAL  18  1  18
M  SED  18 [#6&h0]
M  SAL  19  1  19
M  SED  19 [#6&h0]
M  SAL  20  1  20
M  SED  20 [#6&h0]
M  SAL  21  1  21
M  SED  21 [#6&h0]
M  SAL  22  1  22
M  SED  22 [#6&h0]
M  SAL  23  1  23
M  SED  23 [#6&h0]
M  SAL  24  1  24
M  SED  24 [#6&h0]
M  SAL  25  1  25
M  SED  25 [#6&h0]
M  SAL  26  1  26
M  SED  26 [#1&h0]
M  SAL  27  1  27
M  SED  27 [#1&h0]
M  SAL  28  1  28
M  SED  28 [#1&h0]
M  SAL  29  1  29
M  SED  29 [#1&h0]
M  SAL  30  1  30
M  SED  30 [#1&h0]
M  SAL  31  1  31
M  SED  31 [#1&h0]
M  SAL  32  1  32
M  SED  32 [#1&h0]
M  SAL  33  1  33
M  SED  33 [#1&h0]
M  SAL  34  1  34
M  SED  34 [#1&h0]
M  SAL  35  1  35
M  SED  35 [#1&h0]
M  SAL  36  1  36
M  SED  36 [#1&h0]
M  SAL  37  1  37
M  SED  37 [#1&h0]
M  SAL  38  1  38
M  SED  38 [#1&h0]
M  SAL  39  1  39
M  SED  39 [#1&h0]
M  SAL  40  1  40
M  SED  40 [#1&h0]
M  SAL  41  1  41
M  SED  41 [#1&h0]
M  SAL  42  1  42
M  SED  42 [#1&h0]
M  SAL  43  1  43
M  SED  43 [#1&h0]
M  SAL  44  1  44
M  SED  44 [#1&h0]
M  SAL  45  1  45
M  SED  45 [#1&h0]
M  SAL  46  1  46
M  SED  46 [#1&h0]
M  END
>  <Activity>  (70) 
0.01

>  <Mapped(file=2032.csv.activities,property=Cached(PUBCHEM_COMPOUND_CID))>  (70) 
100

>  <MatchIndices>  (70) 
183 

>  <PUBCHEM_ATOM_DEF_STEREO_COUNT>  (70) 
0

>  <PUBCHEM_ATOM_UDEF_STEREO_COUNT>  (70) 
0

>  <PUBCHEM_BONDANNOTATIONS>  (70) 
11  16  8
11  19  8
12  14  8
13  14  8
13  15  8
16  17  8
17  20  8
19  21  8
20  21  8
8  12  8
8  9  8
9  15  8

>  <PUBCHEM_BOND_DEF_STEREO_COUNT>  (70) 
0

>  <PUBCHEM_BOND_UDEF_STEREO_COUNT>  (70) 
0

>  <PUBCHEM_CACTVS_COMPLEXITY>  (70) 
534

>  <PUBCHEM_CACTVS_HBOND_ACCEPTOR>  (70) 
6

>  <PUBCHEM_CACTVS_HBOND_DONOR>  (70) 
1

>  <PUBCHEM_CACTVS_ROTATABLE_BOND>  (70) 
6

>  <PUBCHEM_CACTVS_SUBSKEYS>  (70) 
AAADceB6OABAAAAAAAAAAAAAAAAAASAAAAAwYAAAAAAAAEgBQAAAHgQQQAAADATh2AcyD4BABAKAAiBCAHDCCBAgIAAIiJgGjIgdJiKEsRuiOCLkwBEOqAew0HAOMAADBAAMQABgAAYIABiAAAAAAAAAAA==

>  <PUBCHEM_CACTVS_TAUTO_COUNT>  (70) 
1

>  <PUBCHEM_CACTVS_TPSA>  (70) 
82.2

>  <PUBCHEM_COMPONENT_COUNT>  (70) 
1

>  <PUBCHEM_COMPOUND_CANONICALIZED>  (70) 
1

>  <PUBCHEM_COMPOUND_CID>  (70) 
1288666

>  <PUBCHEM_COORDINATE_TYPE>  (70) 
1
5
255

>  <PUBCHEM_EXACT_MASS>  (70) 
363.114044

>  <PUBCHEM_HEAVY_ATOM_COUNT>  (70) 
25

>  <PUBCHEM_ISOTOPIC_ATOM_COUNT>  (70) 
0

>  <PUBCHEM_IUPAC_CAS_NAME>  (70) 
N-(1,3-benzodioxol-5-ylmethyl)-5-ethoxy-2,4-dimethylbenzenesulfonamide

>  <PUBCHEM_IUPAC_INCHI>  (70) 
InChI=1S/C18H21NO5S/c1-4-22-16-9-18(13(3)7-12(16)2)25(20,21)19-10-14-5-6-15-17(8-14)24-11-23-15/h5-9,19H,4,10-11H2,1-3H3

>  <PUBCHEM_IUPAC_INCHIKEY>  (70) 
UOBVKGSGJOYEBR-UHFFFAOYSA-N

>  <PUBCHEM_IUPAC_NAME>  (70) 
N-(1,3-benzodioxol-5-ylmethyl)-5-ethoxy-2,4-dimethylbenzenesulfonamide

>  <PUBCHEM_IUPAC_OPENEYE_NAME>  (70) 
N-(1,3-benzodioxol-5-ylmethyl)-5-ethoxy-2,4-dimethyl-benzenesulfonamide

>  <PUBCHEM_IUPAC_SYSTEMATIC_NAME>  (70) 
N-(1,3-benzodioxol-5-ylmethyl)-5-ethoxy-2,4-dimethyl-benzenesulfonamide

>  <PUBCHEM_IUPAC_TRADITIONAL_NAME>  (70) 
5-ethoxy-2,4-dimethyl-N-piperonyl-benzenesulfonamide

>  <PUBCHEM_MOLECULAR_FORMULA>  (70) 
C18H21NO5S

>  <PUBCHEM_MOLECULAR_WEIGHT>  (70) 
363.42804

>  <PUBCHEM_MONOISOTOPIC_WEIGHT>  (70) 
363.114044

>  <PUBCHEM_OPENEYE_CAN_SMILES>  (70) 
CCOC1=CC(=C(C=C1C)C)S(=O)(=O)NCC2=CC3=C(C=C2)OCO3

>  <PUBCHEM_OPENEYE_ISO_SMILES>  (70) 
CCOC1=CC(=C(C=C1C)C)S(=O)(=O)NCC2=CC3=C(C=C2)OCO3

>  <PUBCHEM_TOTAL_CHARGE>  (70) 
0

>  <PUBCHEM_XLOGP3_AA>  (70) 
3.3

$$$$
Largest isolated from Written by BCL::WriteToMDL,1125097
     RDKit          2D

 35 36  0 35  0  0  0  0  0  0999 V2000
    5.0633    2.0813    0.0000 Br  0  0  0  0  0  0  0  0  0  0  0  0
    0.3837   -0.1773    0.0000 S   0  0  0  0  0  0  0  0  0  0  0  0
    0.6760    1.2939    0.0000 O   0  0  0  0  0  0  0  0  0  0  0  0
    0.2284   -0.9592    0.0000 O   0  0  0  0  0  0  0  0  0  0  0  0
    1.6877   -2.8791    0.0000 O   0  0  0  0  0  0  0  0  0  0  0  0
   -1.1122   -0.0666    0.0000 N   0  0  0  0  0  0  0  0  0  0  0  0
   -3.3588    0.8518    0.0000 N   0  0  0  0  0  0  0  0  0  0  0  0
   -1.9019    1.2088    0.0000 C   0  0  0  0  0  0  0  0  0  0  0  0
    1.8796   -0.2881    0.0000 C   0  0  0  0  0  0  0  0  0  0  0  0
   -2.0811   -1.2117    0.0000 C   0  0  0  0  0  0  0  0  0  0  0  0
   -1.3343    2.5972    0.0000 C   0  0  0  0  0  0  0  0  0  0  0  0
   -3.4696   -0.6441    0.0000 C   0  0  0  0  0  0  0  0  0  0  0  0
    2.5316   -1.6390    0.0000 C   0  0  0  0  0  0  0  0  0  0  0  0
    2.7235    0.9520    0.0000 C   0  0  0  0  0  0  0  0  0  0  0  0
   -0.7666    3.9857    0.0000 C   0  0  0  0  0  0  0  0  0  0  0  0
   -4.7449   -1.4337    0.0000 C   0  0  0  0  0  0  0  0  0  0  0  0
    4.0275   -1.7498    0.0000 C   0  0  0  0  0  0  0  0  0  0  0  0
    4.2194    0.8412    0.0000 C   0  0  0  0  0  0  0  0  0  0  0  0
    4.8714   -0.5097    0.0000 C   0  0  0  0  0  0  0  0  0  0  0  0
    0.1918   -2.7683    0.0000 C   0  0  0  0  0  0  0  0  0  0  0  0
   -1.9045   -2.7012    0.0000 H   0  0  0  0  0  0  0  0  0  0  0  0
   -2.7227    3.1648    0.0000 H   0  0  0  0  0  0  0  0  0  0  0  0
    0.1130    2.2031    0.0000 H   0  0  0  0  0  0  0  0  0  0  0  0
    2.0715    2.3029    0.0000 H   0  0  0  0  0  0  0  0  0  0  0  0
   -2.1551    4.5533    0.0000 H   0  0  0  0  0  0  0  0  0  0  0  0
    0.6218    3.4181    0.0000 H   0  0  0  0  0  0  0  0  0  0  0  0
   -0.1990    5.3741    0.0000 H   0  0  0  0  0  0  0  0  0  0  0  0
   -5.5345   -0.1584    0.0000 H   0  0  0  0  0  0  0  0  0  0  0  0
   -3.9552   -2.7090    0.0000 H   0  0  0  0  0  0  0  0  0  0  0  0
   -6.0202   -2.2234    0.0000 H   0  0  0  0  0  0  0  0  0  0  0  0
    4.6795   -3.1006    0.0000 H   0  0  0  0  0  0  0  0  0  0  0  0
    6.3673   -0.6204    0.0000 H   0  0  0  0  0  0  0  0  0  0  0  0
    0.0810   -4.2642    0.0000 H   0  0  0  0  0  0  0  0  0  0  0  0
    0.1491   -1.8836    0.0000 H   0  0  0  0  0  0  0  0  0  0  0  0
   -1.3064   -2.8407    0.0000 H   0  0  0  0  0  0  0  0  0  0  0  0
  1 18  1  0
  2  3  2  0
  2  4  2  0
  2  6  1  0
  2  9  1  0
  5 13  1  0
  5 20  1  0
  6  8  1  0
  6 10  1  0
  7  8  2  0
  7 12  1  0
  8 11  1  0
  9 13  2  0
  9 14  1  0
 10 12  2  0
 10 21  1  0
 11 15  1  0
 11 22  1  0
 11 23  1  0
 12 16  1  0
 13 17  1  0
 14 18  2  0
 14 24  1  0
 15 25  1  0
 15 26  1  0
 15 27  1  0
 16 28  1  0
 16 29  1  0
 16 30  1  0
 17 19  2  0
 17 31  1  0
 18 19  1  0
 19 32  1  0
 20 33  1  0
 20 34  1  0
 20 35  1  0
M  STY  8   1 DAT   2 DAT   3 DAT   4 DAT   5 DAT   6 DAT   7 DAT   8 DAT
M  STY  8   9 DAT  10 DAT  11 DAT  12 DAT  13 DAT  14 DAT  15 DAT  16 DAT
M  STY  8  17 DAT  18 DAT  19 DAT  20 DAT  21 DAT  22 DAT  23 DAT  24 DAT
M  STY  8  25 DAT  26 DAT  27 DAT  28 DAT  29 DAT  30 DAT  31 DAT  32 DAT
M  STY  3  33 DAT  34 DAT  35 DAT
M  SAL   1  1   1
M  SED   1 [#35&h0]
M  SAL   2  1   2
M  SED   2 [#16&h0]
M  SAL   3  1   3
M  SED   3 [#8&h0]
M  SAL   4  1   4
M  SED   4 [#8&h0]
M  SAL   5  1   5
M  SED   5 [#8&h0]
M  SAL   6  1   6
M  SED   6 [#7&h0]
M  SAL   7  1   7
M  SED   7 [#7&h0]
M  SAL   8  1   8
M  SED   8 [#6&h0]
M  SAL   9  1   9
M  SED   9 [#6&h0]
M  SAL  10  1  10
M  SED  10 [#6&h0]
M  SAL  11  1  11
M  SED  11 [#6&h0]
M  SAL  12  1  12
M  SED  12 [#6&h0]
M  SAL  13  1  13
M  SED  13 [#6&h0]
M  SAL  14  1  14
M  SED  14 [#6&h0]
M  SAL  15  1  15
M  SED  15 [#6&h0]
M  SAL  16  1  16
M  SED  16 [#6&h0]
M  SAL  17  1  17
M  SED  17 [#6&h0]
M  SAL  18  1  18
M  SED  18 [#6&h0]
M  SAL  19  1  19
M  SED  19 [#6&h0]
M  SAL  20  1  20
M  SED  20 [#6&h0]
M  SAL  21  1  21
M  SED  21 [#1&h0]
M  SAL  22  1  22
M  SED  22 [#1&h0]
M  SAL  23  1  23
M  SED  23 [#1&h0]
M  SAL  24  1  24
M  SED  24 [#1&h0]
M  SAL  25  1  25
M  SED  25 [#1&h0]
M  SAL  26  1  26
M  SED  26 [#1&h0]
M  SAL  27  1  27
M  SED  27 [#1&h0]
M  SAL  28  1  28
M  SED  28 [#1&h0]
M  SAL  29  1  29
M  SED  29 [#1&h0]
M  SAL  30  1  30
M  SED  30 [#1&h0]
M  SAL  31  1  31
M  SED  31 [#1&h0]
M  SAL  32  1  32
M  SED  32 [#1&h0]
M  SAL  33  1  33
M  SED  33 [#1&h0]
M  SAL  34  1  34
M  SED  34 [#1&h0]
M  SAL  35  1  35
M  SED  35 [#1&h0]
M  END
>  <Activity>  (71) 
0.01

>  <Mapped(file=2032.csv.activities,property=Cached(PUBCHEM_COMPOUND_CID))>  (71) 
100

>  <MatchIndices>  (71) 
23 

>  <PUBCHEM_ATOM_DEF_STEREO_COUNT>  (71) 
0

>  <PUBCHEM_ATOM_UDEF_STEREO_COUNT>  (71) 
0

>  <PUBCHEM_BONDANNOTATIONS>  (71) 
10  12  8
13  17  8
14  18  8
17  19  8
18  19  8
6  10  8
6  8  8
7  12  8
7  8  8
9  13  8
9  14  8

>  <PUBCHEM_BOND_DEF_STEREO_COUNT>  (71) 
0

>  <PUBCHEM_BOND_UDEF_STEREO_COUNT>  (71) 
0

>  <PUBCHEM_CACTVS_COMPLEXITY>  (71) 
426

>  <PUBCHEM_CACTVS_HBOND_ACCEPTOR>  (71) 
3

>  <PUBCHEM_CACTVS_HBOND_DONOR>  (71) 
0

>  <PUBCHEM_CACTVS_ROTATABLE_BOND>  (71) 
4

>  <PUBCHEM_CACTVS_SUBSKEYS>  (71) 
AAADccBzMABAEAAAAAAAAAAAAAAAAWAAAAAwAAAAAAAAAAABwAAAHgRAQAABqAzB1wY/l5YIFAKgATZnZHBCiD0xMqQJ2Bo+eKiMbiLEORqUMCAswBPIqjeAQAAAABAAAAgAIAAAIAAAEABAAAAAAAAAAA==

>  <PUBCHEM_CACTVS_TAUTO_COUNT>  (71) 
2

>  <PUBCHEM_CACTVS_TPSA>  (71) 
69.6

>  <PUBCHEM_COMPONENT_COUNT>  (71) 
1

>  <PUBCHEM_COMPOUND_CANONICALIZED>  (71) 
1

>  <PUBCHEM_COMPOUND_CID>  (71) 
1125097

>  <PUBCHEM_COORDINATE_TYPE>  (71) 
1
5
255

>  <PUBCHEM_EXACT_MASS>  (71) 
357.998675

>  <PUBCHEM_HEAVY_ATOM_COUNT>  (71) 
20

>  <PUBCHEM_ISOTOPIC_ATOM_COUNT>  (71) 
0

>  <PUBCHEM_IUPAC_CAS_NAME>  (71) 
1-(5-bromo-2-methoxyphenyl)sulfonyl-2-ethyl-4-methylimidazole

>  <PUBCHEM_IUPAC_INCHI>  (71) 
InChI=1S/C13H15BrN2O3S/c1-4-13-15-9(2)8-16(13)20(17,18)12-7-10(14)5-6-11(12)19-3/h5-8H,4H2,1-3H3

>  <PUBCHEM_IUPAC_INCHIKEY>  (71) 
SDMMYBHYEFOUHE-UHFFFAOYSA-N

>  <PUBCHEM_IUPAC_NAME>  (71) 
1-(5-bromo-2-methoxyphenyl)sulfonyl-2-ethyl-4-methylimidazole

>  <PUBCHEM_IUPAC_OPENEYE_NAME>  (71) 
1-(5-bromo-2-methoxy-phenyl)sulfonyl-2-ethyl-4-methyl-imidazole

>  <PUBCHEM_IUPAC_SYSTEMATIC_NAME>  (71) 
1-(5-bromanyl-2-methoxy-phenyl)sulfonyl-2-ethyl-4-methyl-imidazole

>  <PUBCHEM_IUPAC_TRADITIONAL_NAME>  (71) 
1-(5-bromo-2-methoxy-phenyl)sulfonyl-2-ethyl-4-methyl-imidazole

>  <PUBCHEM_MOLECULAR_FORMULA>  (71) 
C13H15BrN2O3S

>  <PUBCHEM_MOLECULAR_WEIGHT>  (71) 
359.2388

>  <PUBCHEM_MONOISOTOPIC_WEIGHT>  (71) 
357.998675

>  <PUBCHEM_OPENEYE_CAN_SMILES>  (71) 
CCC1=NC(=CN1S(=O)(=O)C2=C(C=CC(=C2)Br)OC)C

>  <PUBCHEM_OPENEYE_ISO_SMILES>  (71) 
CCC1=NC(=CN1S(=O)(=O)C2=C(C=CC(=C2)Br)OC)C

>  <PUBCHEM_TOTAL_CHARGE>  (71) 
0

>  <PUBCHEM_XLOGP3_AA>  (71) 
3.1

$$$$
Largest isolated from Written by BCL::WriteToMDL,2809964
     RDKit          2D

 47 48  0 47  0  0  0  0  0  0999 V2000
   -2.9533   -0.9108    0.0000 O   0  0  0  0  0  0  0  0  0  0  0  0
    0.2706    2.2287    0.0000 O   0  0  0  0  0  0  0  0  0  0  0  0
    8.5585    0.8778    0.0000 O   0  0  0  0  0  0  0  0  0  0  0  0
   -6.1772   -4.0502    0.0000 O   0  0  0  0  0  0  0  0  0  0  0  0
   -3.6590   -3.4112    0.0000 O   0  0  0  0  0  0  0  0  0  0  0  0
    1.2890   -0.9670    0.0000 N   0  0  0  0  0  0  0  0  0  0  0  0
   -5.1026   -3.0038    0.0000 N   0  0  0  0  0  0  0  0  0  0  0  0
   -0.8040    1.1822    0.0000 C   0  0  0  0  0  0  0  0  0  0  0  0
    0.2425    0.1076    0.0000 C   0  0  0  0  0  0  0  0  0  0  0  0
   -1.8787    0.1357    0.0000 C   0  0  0  0  0  0  0  0  0  0  0  0
    2.7429   -0.5981    0.0000 C   0  0  0  0  0  0  0  0  0  0  0  0
    4.1968   -0.2291    0.0000 C   0  0  0  0  0  0  0  0  0  0  0  0
   -4.3969   -0.5033    0.0000 C   0  0  0  0  0  0  0  0  0  0  0  0
    5.2433   -1.3037    0.0000 C   0  0  0  0  0  0  0  0  0  0  0  0
    4.6042    1.2145    0.0000 C   0  0  0  0  0  0  0  0  0  0  0  0
   -5.4716   -1.5498    0.0000 C   0  0  0  0  0  0  0  0  0  0  0  0
   -4.7659    0.9506    0.0000 C   0  0  0  0  0  0  0  0  0  0  0  0
   -7.2841    0.3115    0.0000 C   0  0  0  0  0  0  0  0  0  0  0  0
   -6.9152   -1.1424    0.0000 C   0  0  0  0  0  0  0  0  0  0  0  0
   -6.2095    1.3580    0.0000 C   0  0  0  0  0  0  0  0  0  0  0  0
    6.6972   -0.9348    0.0000 C   0  0  0  0  0  0  0  0  0  0  0  0
    6.0581    1.5835    0.0000 C   0  0  0  0  0  0  0  0  0  0  0  0
    7.1046    0.5088    0.0000 C   0  0  0  0  0  0  0  0  0  0  0  0
   -8.7278    0.7189    0.0000 C   0  0  0  0  0  0  0  0  0  0  0  0
    9.6050   -0.1968    0.0000 C   0  0  0  0  0  0  0  0  0  0  0  0
   -1.8505    2.2569    0.0000 H   0  0  0  0  0  0  0  0  0  0  0  0
   -0.3121   -0.5831    0.0000 H   0  0  0  0  0  0  0  0  0  0  0  0
    1.3171    1.1541    0.0000 H   0  0  0  0  0  0  0  0  0  0  0  0
   -1.3427   -0.5694    0.0000 H   0  0  0  0  0  0  0  0  0  0  0  0
   -2.9252    1.2104    0.0000 H   0  0  0  0  0  0  0  0  0  0  0  0
    0.8815   -2.4107    0.0000 H   0  0  0  0  0  0  0  0  0  0  0  0
    3.1118   -2.0520    0.0000 H   0  0  0  0  0  0  0  0  0  0  0  0
    2.3739    0.8558    0.0000 H   0  0  0  0  0  0  0  0  0  0  0  0
   -0.0984    3.6826    0.0000 H   0  0  0  0  0  0  0  0  0  0  0  0
    4.8359   -2.7474    0.0000 H   0  0  0  0  0  0  0  0  0  0  0  0
    3.5577    2.2891    0.0000 H   0  0  0  0  0  0  0  0  0  0  0  0
   -3.6913    1.9971    0.0000 H   0  0  0  0  0  0  0  0  0  0  0  0
   -7.9898   -2.1889    0.0000 H   0  0  0  0  0  0  0  0  0  0  0  0
   -6.5785    2.8119    0.0000 H   0  0  0  0  0  0  0  0  0  0  0  0
    7.7437   -2.0094    0.0000 H   0  0  0  0  0  0  0  0  0  0  0  0
    6.4655    3.0271    0.0000 H   0  0  0  0  0  0  0  0  0  0  0  0
   -9.1352   -0.7247    0.0000 H   0  0  0  0  0  0  0  0  0  0  0  0
   -8.3203    2.1625    0.0000 H   0  0  0  0  0  0  0  0  0  0  0  0
  -10.1714    1.1263    0.0000 H   0  0  0  0  0  0  0  0  0  0  0  0
   10.6796    0.8497    0.0000 H   0  0  0  0  0  0  0  0  0  0  0  0
    8.5304   -1.2433    0.0000 H   0  0  0  0  0  0  0  0  0  0  0  0
   10.6515   -1.2715    0.0000 H   0  0  0  0  0  0  0  0  0  0  0  0
  1 10  1  0
  1 13  1  0
  2  8  1  0
  2 34  1  0
  3 23  1  0
  3 25  1  0
  4  7  1  0
  5  7  2  0
  6  9  1  0
  6 11  1  0
  6 31  1  0
  7 16  1  0
  8  9  1  0
  8 10  1  0
  8 26  1  6
  9 27  1  0
  9 28  1  0
 10 29  1  0
 10 30  1  0
 11 12  1  0
 11 32  1  0
 11 33  1  0
 12 14  2  0
 12 15  1  0
 13 16  2  0
 13 17  1  0
 14 21  1  0
 14 35  1  0
 15 22  2  0
 15 36  1  0
 16 19  1  0
 17 20  2  0
 17 37  1  0
 18 19  2  0
 18 20  1  0
 18 24  1  0
 19 38  1  0
 20 39  1  0
 21 23  2  0
 21 40  1  0
 22 23  1  0
 22 41  1  0
 24 42  1  0
 24 43  1  0
 24 44  1  0
 25 45  1  0
 25 46  1  0
 25 47  1  0
M  CHG  2   4  -1   7   1
V    4 [#8&-&h0]
V    7 [#7&+&h0]
M  STY  8   1 DAT   2 DAT   3 DAT   4 DAT   5 DAT   6 DAT   7 DAT   8 DAT
M  STY  8   9 DAT  10 DAT  11 DAT  12 DAT  13 DAT  14 DAT  15 DAT  16 DAT
M  STY  8  17 DAT  18 DAT  19 DAT  20 DAT  21 DAT  22 DAT  23 DAT  24 DAT
M  STY  8  25 DAT  26 DAT  27 DAT  28 DAT  29 DAT  30 DAT  31 DAT  32 DAT
M  STY  8  33 DAT  34 DAT  35 DAT  36 DAT  37 DAT  38 DAT  39 DAT  40 DAT
M  STY  7  41 DAT  42 DAT  43 DAT  44 DAT  45 DAT  46 DAT  47 DAT
M  SAL   1  1   1
M  SED   1 [#8&h0]
M  SAL   2  1   2
M  SED   2 [#8&h0]
M  SAL   3  1   3
M  SED   3 [#8&h0]
M  SAL   4  1   4
M  SED   4 [#8&-&h0]
M  SAL   5  1   5
M  SED   5 [#8&h0]
M  SAL   6  1   6
M  SED   6 [#7&h0]
M  SAL   7  1   7
M  SED   7 [#7&+&h0]
M  SAL   8  1   8
M  SED   8 [#6&h0]
M  SAL   9  1   9
M  SED   9 [#6&h0]
M  SAL  10  1  10
M  SED  10 [#6&h0]
M  SAL  11  1  11
M  SED  11 [#6&h0]
M  SAL  12  1  12
M  SED  12 [#6&h0]
M  SAL  13  1  13
M  SED  13 [#6&h0]
M  SAL  14  1  14
M  SED  14 [#6&h0]
M  SAL  15  1  15
M  SED  15 [#6&h0]
M  SAL  16  1  16
M  SED  16 [#6&h0]
M  SAL  17  1  17
M  SED  17 [#6&h0]
M  SAL  18  1  18
M  SED  18 [#6&h0]
M  SAL  19  1  19
M  SED  19 [#6&h0]
M  SAL  20  1  20
M  SED  20 [#6&h0]
M  SAL  21  1  21
M  SED  21 [#6&h0]
M  SAL  22  1  22
M  SED  22 [#6&h0]
M  SAL  23  1  23
M  SED  23 [#6&h0]
M  SAL  24  1  24
M  SED  24 [#6&h0]
M  SAL  25  1  25
M  SED  25 [#6&h0]
M  SAL  26  1  26
M  SED  26 [#1&h0]
M  SAL  27  1  27
M  SED  27 [#1&h0]
M  SAL  28  1  28
M  SED  28 [#1&h0]
M  SAL  29  1  29
M  SED  29 [#1&h0]
M  SAL  30  1  30
M  SED  30 [#1&h0]
M  SAL  31  1  31
M  SED  31 [#1&h0]
M  SAL  32  1  32
M  SED  32 [#1&h0]
M  SAL  33  1  33
M  SED  33 [#1&h0]
M  SAL  34  1  34
M  SED  34 [#1&h0]
M  SAL  35  1  35
M  SED  35 [#1&h0]
M  SAL  36  1  36
M  SED  36 [#1&h0]
M  SAL  37  1  37
M  SED  37 [#1&h0]
M  SAL  38  1  38
M  SED  38 [#1&h0]
M  SAL  39  1  39
M  SED  39 [#1&h0]
M  SAL  40  1  40
M  SED  40 [#1&h0]
M  SAL  41  1  41
M  SED  41 [#1&h0]
M  SAL  42  1  42
M  SED  42 [#1&h0]
M  SAL  43  1  43
M  SED  43 [#1&h0]
M  SAL  44  1  44
M  SED  44 [#1&h0]
M  SAL  45  1  45
M  SED  45 [#1&h0]
M  SAL  46  1  46
M  SED  46 [#1&h0]
M  SAL  47  1  47
M  SED  47 [#1&h0]
M  END
>  <Activity>  (72) 
0.01

>  <Mapped(file=2032.csv.activities,property=Cached(PUBCHEM_COMPOUND_CID))>  (72) 
100

>  <MatchIndices>  (72) 
27 

>  <PUBCHEM_ATOM_DEF_STEREO_COUNT>  (72) 
0

>  <PUBCHEM_ATOM_UDEF_STEREO_COUNT>  (72) 
1

>  <PUBCHEM_BONDANNOTATIONS>  (72) 
12  14  8
12  15  8
13  16  8
13  17  8
14  21  8
15  22  8
16  19  8
17  20  8
18  19  8
18  20  8
21  23  8
22  23  8
8  26  3

>  <PUBCHEM_BOND_DEF_STEREO_COUNT>  (72) 
0

>  <PUBCHEM_BOND_UDEF_STEREO_COUNT>  (72) 
0

>  <PUBCHEM_CACTVS_COMPLEXITY>  (72) 
395

>  <PUBCHEM_CACTVS_HBOND_ACCEPTOR>  (72) 
6

>  <PUBCHEM_CACTVS_HBOND_DONOR>  (72) 
2

>  <PUBCHEM_CACTVS_ROTATABLE_BOND>  (72) 
8

>  <PUBCHEM_CACTVS_SUBSKEYS>  (72) 
AAADceB7OAAAAAAAAAAAAAAAAAAAAAAAAAAwYAAAAAAAAAABQAAAHgAUCAAADBzhmAYyxoLQRgCBAiRCQwCCCAAgIgAoiIAPbIoPNiKEsZuHOCjm0FGb6AeQ0AIOIAAAQAAAEABAAACAAAAgAAAAAAAAAA==

>  <PUBCHEM_CACTVS_TAUTO_COUNT>  (72) 
1

>  <PUBCHEM_CACTVS_TPSA>  (72) 
96.5

>  <PUBCHEM_COMPONENT_COUNT>  (72) 
1

>  <PUBCHEM_COMPOUND_CANONICALIZED>  (72) 
1

>  <PUBCHEM_COMPOUND_CID>  (72) 
2809964

>  <PUBCHEM_COORDINATE_TYPE>  (72) 
1
5
255

>  <PUBCHEM_EXACT_MASS>  (72) 
346.152872

>  <PUBCHEM_HEAVY_ATOM_COUNT>  (72) 
25

>  <PUBCHEM_ISOTOPIC_ATOM_COUNT>  (72) 
0

>  <PUBCHEM_IUPAC_CAS_NAME>  (72) 
1-[(4-methoxyphenyl)methylamino]-3-(4-methyl-2-nitrophenoxy)-2-propanol

>  <PUBCHEM_IUPAC_INCHI>  (72) 
InChI=1S/C18H22N2O5/c1-13-3-8-18(17(9-13)20(22)23)25-12-15(21)11-19-10-14-4-6-16(24-2)7-5-14/h3-9,15,19,21H,10-12H2,1-2H3

>  <PUBCHEM_IUPAC_INCHIKEY>  (72) 
GNPWKXORUUWJHX-UHFFFAOYSA-N

>  <PUBCHEM_IUPAC_NAME>  (72) 
1-[(4-methoxyphenyl)methylamino]-3-(4-methyl-2-nitrophenoxy)propan-2-ol

>  <PUBCHEM_IUPAC_OPENEYE_NAME>  (72) 
1-[(4-methoxyphenyl)methylamino]-3-(4-methyl-2-nitro-phenoxy)propan-2-ol

>  <PUBCHEM_IUPAC_SYSTEMATIC_NAME>  (72) 
1-[(4-methoxyphenyl)methylamino]-3-(4-methyl-2-nitro-phenoxy)propan-2-ol

>  <PUBCHEM_IUPAC_TRADITIONAL_NAME>  (72) 
1-(4-methyl-2-nitro-phenoxy)-3-(p-anisylamino)propan-2-ol

>  <PUBCHEM_MOLECULAR_FORMULA>  (72) 
C18H22N2O5

>  <PUBCHEM_MOLECULAR_WEIGHT>  (72) 
346.37768

>  <PUBCHEM_MONOISOTOPIC_WEIGHT>  (72) 
346.152872

>  <PUBCHEM_OPENEYE_CAN_SMILES>  (72) 
CC1=CC(=C(C=C1)OCC(CNCC2=CC=C(C=C2)OC)O)[N+](=O)[O-]

>  <PUBCHEM_OPENEYE_ISO_SMILES>  (72) 
CC1=CC(=C(C=C1)OCC(CNCC2=CC=C(C=C2)OC)O)[N+](=O)[O-]

>  <PUBCHEM_TOTAL_CHARGE>  (72) 
0

>  <PUBCHEM_XLOGP3_AA>  (72) 
2.5

$$$$
Largest isolated from Written by BCL::WriteToMDL,16248173
     RDKit          2D

 43 45  0 43  0  0  0  0  0  0999 V2000
    0.4669   -1.9463    0.0000 O   0  0  0  0  0  0  0  0  0  0  0  0
   -0.0577    1.9875    0.0000 N   0  0  0  0  0  0  0  0  0  0  0  0
    2.1888   -0.0008    0.0000 C   0  0  0  0  0  0  0  0  0  0  0  0
    1.0656    0.9934    0.0000 C   0  0  0  0  0  0  0  0  0  0  0  0
    3.6114    0.4749    0.0000 C   0  0  0  0  0  0  0  0  0  0  0  0
    4.7346   -0.5193    0.0000 C   0  0  0  0  0  0  0  0  0  0  0  0
    1.8894   -1.4706    0.0000 C   0  0  0  0  0  0  0  0  0  0  0  0
   -1.4802    1.5119    0.0000 C   0  0  0  0  0  0  0  0  0  0  0  0
    4.4353   -1.9891    0.0000 C   0  0  0  0  0  0  0  0  0  0  0  0
    3.9107    1.9447    0.0000 C   0  0  0  0  0  0  0  0  0  0  0  0
   -2.9028    1.0362    0.0000 C   0  0  0  0  0  0  0  0  0  0  0  0
    3.0127   -2.4648    0.0000 C   0  0  0  0  0  0  0  0  0  0  0  0
    6.1572   -0.0436    0.0000 C   0  0  0  0  0  0  0  0  0  0  0  0
    5.3333    2.4204    0.0000 C   0  0  0  0  0  0  0  0  0  0  0  0
    6.4565    1.4262    0.0000 C   0  0  0  0  0  0  0  0  0  0  0  0
   -4.0261    2.0304    0.0000 C   0  0  0  0  0  0  0  0  0  0  0  0
   -3.2022   -0.4336    0.0000 C   0  0  0  0  0  0  0  0  0  0  0  0
   -5.7480    0.0849    0.0000 C   0  0  0  0  0  0  0  0  0  0  0  0
   -5.4486    1.5547    0.0000 C   0  0  0  0  0  0  0  0  0  0  0  0
   -4.6248   -0.9093    0.0000 C   0  0  0  0  0  0  0  0  0  0  0  0
   -7.1706   -0.3908    0.0000 C   0  0  0  0  0  0  0  0  0  0  0  0
    0.1675   -3.4161    0.0000 C   0  0  0  0  0  0  0  0  0  0  0  0
    2.0597    2.1166    0.0000 H   0  0  0  0  0  0  0  0  0  0  0  0
    0.0714   -0.1299    0.0000 H   0  0  0  0  0  0  0  0  0  0  0  0
    0.2417    3.4574    0.0000 H   0  0  0  0  0  0  0  0  0  0  0  0
   -1.9559    2.9345    0.0000 H   0  0  0  0  0  0  0  0  0  0  0  0
   -1.0046    0.0893    0.0000 H   0  0  0  0  0  0  0  0  0  0  0  0
    5.5585   -2.9833    0.0000 H   0  0  0  0  0  0  0  0  0  0  0  0
    2.7875    2.9389    0.0000 H   0  0  0  0  0  0  0  0  0  0  0  0
    2.7133   -3.9346    0.0000 H   0  0  0  0  0  0  0  0  0  0  0  0
    7.2804   -1.0378    0.0000 H   0  0  0  0  0  0  0  0  0  0  0  0
    5.6327    3.8902    0.0000 H   0  0  0  0  0  0  0  0  0  0  0  0
    7.8791    1.9019    0.0000 H   0  0  0  0  0  0  0  0  0  0  0  0
   -3.7267    3.5002    0.0000 H   0  0  0  0  0  0  0  0  0  0  0  0
   -2.0790   -1.4278    0.0000 H   0  0  0  0  0  0  0  0  0  0  0  0
   -6.5719    2.5489    0.0000 H   0  0  0  0  0  0  0  0  0  0  0  0
   -4.9241   -2.3791    0.0000 H   0  0  0  0  0  0  0  0  0  0  0  0
   -7.6462    1.0318    0.0000 H   0  0  0  0  0  0  0  0  0  0  0  0
   -6.6949   -1.8134    0.0000 H   0  0  0  0  0  0  0  0  0  0  0  0
   -8.5932   -0.8665    0.0000 H   0  0  0  0  0  0  0  0  0  0  0  0
    1.6373   -3.7155    0.0000 H   0  0  0  0  0  0  0  0  0  0  0  0
   -1.3023   -3.1168    0.0000 H   0  0  0  0  0  0  0  0  0  0  0  0
   -0.1318   -4.8859    0.0000 H   0  0  0  0  0  0  0  0  0  0  0  0
  1  7  1  0
  1 22  1  0
  2  4  1  0
  2  8  1  0
  2 25  1  0
  3  4  1  0
  3  5  1  0
  3  7  2  0
  4 23  1  0
  4 24  1  0
  5  6  2  0
  5 10  1  0
  6  9  1  0
  6 13  1  0
  7 12  1  0
  8 11  1  0
  8 26  1  0
  8 27  1  0
  9 12  2  0
  9 28  1  0
 10 14  2  0
 10 29  1  0
 11 16  2  0
 11 17  1  0
 12 30  1  0
 13 15  2  0
 13 31  1  0
 14 15  1  0
 14 32  1  0
 15 33  1  0
 16 19  1  0
 16 34  1  0
 17 20  2  0
 17 35  1  0
 18 19  2  0
 18 20  1  0
 18 21  1  0
 19 36  1  0
 20 37  1  0
 21 38  1  0
 21 39  1  0
 21 40  1  0
 22 41  1  0
 22 42  1  0
 22 43  1  0
M  STY  8   1 DAT   2 DAT   3 DAT   4 DAT   5 DAT   6 DAT   7 DAT   8 DAT
M  STY  8   9 DAT  10 DAT  11 DAT  12 DAT  13 DAT  14 DAT  15 DAT  16 DAT
M  STY  8  17 DAT  18 DAT  19 DAT  20 DAT  21 DAT  22 DAT  23 DAT  24 DAT
M  STY  8  25 DAT  26 DAT  27 DAT  28 DAT  29 DAT  30 DAT  31 DAT  32 DAT
M  STY  8  33 DAT  34 DAT  35 DAT  36 DAT  37 DAT  38 DAT  39 DAT  40 DAT
M  STY  3  41 DAT  42 DAT  43 DAT
M  SAL   1  1   1
M  SED   1 [#8&h0]
M  SAL   2  1   2
M  SED   2 [#7&h0]
M  SAL   3  1   3
M  SED   3 [#6&h0]
M  SAL   4  1   4
M  SED   4 [#6&h0]
M  SAL   5  1   5
M  SED   5 [#6&h0]
M  SAL   6  1   6
M  SED   6 [#6&h0]
M  SAL   7  1   7
M  SED   7 [#6&h0]
M  SAL   8  1   8
M  SED   8 [#6&h0]
M  SAL   9  1   9
M  SED   9 [#6&h0]
M  SAL  10  1  10
M  SED  10 [#6&h0]
M  SAL  11  1  11
M  SED  11 [#6&h0]
M  SAL  12  1  12
M  SED  12 [#6&h0]
M  SAL  13  1  13
M  SED  13 [#6&h0]
M  SAL  14  1  14
M  SED  14 [#6&h0]
M  SAL  15  1  15
M  SED  15 [#6&h0]
M  SAL  16  1  16
M  SED  16 [#6&h0]
M  SAL  17  1  17
M  SED  17 [#6&h0]
M  SAL  18  1  18
M  SED  18 [#6&h0]
M  SAL  19  1  19
M  SED  19 [#6&h0]
M  SAL  20  1  20
M  SED  20 [#6&h0]
M  SAL  21  1  21
M  SED  21 [#6&h0]
M  SAL  22  1  22
M  SED  22 [#6&h0]
M  SAL  23  1  23
M  SED  23 [#1&h0]
M  SAL  24  1  24
M  SED  24 [#1&h0]
M  SAL  25  1  25
M  SED  25 [#1&h0]
M  SAL  26  1  26
M  SED  26 [#1&h0]
M  SAL  27  1  27
M  SED  27 [#1&h0]
M  SAL  28  1  28
M  SED  28 [#1&h0]
M  SAL  29  1  29
M  SED  29 [#1&h0]
M  SAL  30  1  30
M  SED  30 [#1&h0]
M  SAL  31  1  31
M  SED  31 [#1&h0]
M  SAL  32  1  32
M  SED  32 [#1&h0]
M  SAL  33  1  33
M  SED  33 [#1&h0]
M  SAL  34  1  34
M  SED  34 [#1&h0]
M  SAL  35  1  35
M  SED  35 [#1&h0]
M  SAL  36  1  36
M  SED  36 [#1&h0]
M  SAL  37  1  37
M  SED  37 [#1&h0]
M  SAL  38  1  38
M  SED  38 [#1&h0]
M  SAL  39  1  39
M  SED  39 [#1&h0]
M  SAL  40  1  40
M  SED  40 [#1&h0]
M  SAL  41  1  41
M  SED  41 [#1&h0]
M  SAL  42  1  42
M  SED  42 [#1&h0]
M  SAL  43  1  43
M  SED  43 [#1&h0]
M  END
>  <Activity>  (73) 
0.01

>  <Mapped(file=2032.csv.activities,property=Cached(PUBCHEM_COMPOUND_CID))>  (73) 
100

>  <MatchIndices>  (73) 
82 

>  <PUBCHEM_ATOM_DEF_STEREO_COUNT>  (73) 
0

>  <PUBCHEM_ATOM_UDEF_STEREO_COUNT>  (73) 
0

>  <PUBCHEM_BONDANNOTATIONS>  (73) 
10  13  8
10  17  8
11  16  8
13  16  8
14  18  8
15  20  8
15  21  8
17  19  8
18  19  8
20  23  8
21  24  8
22  23  8
22  24  8
7  11  8
7  9  8
9  10  8
9  14  8

>  <PUBCHEM_BOND_DEF_STEREO_COUNT>  (73) 
0

>  <PUBCHEM_BOND_UDEF_STEREO_COUNT>  (73) 
0

>  <PUBCHEM_CACTVS_COMPLEXITY>  (73) 
395

>  <PUBCHEM_CACTVS_HBOND_ACCEPTOR>  (73) 
6

>  <PUBCHEM_CACTVS_HBOND_DONOR>  (73) 
3

>  <PUBCHEM_CACTVS_ROTATABLE_BOND>  (73) 
6

>  <PUBCHEM_CACTVS_SUBSKEYS>  (73) 
AAADceB6OAAAAAAAAAAAAAAAAAAAAAAAAAAwYMAAAAAAAADBVAAAHgAQCAAADATBmAYyDsLABgCIAiDSCAKCCAAgIAAIiIBODIgNJiKEsRuEMChmwBGJqAeQwPAO4AADAAAYAADAAAYAADAAAAAAAAAAAA==

>  <PUBCHEM_CACTVS_TAUTO_COUNT>  (73) 
1

>  <PUBCHEM_CACTVS_TPSA>  (73) 
95.9

>  <PUBCHEM_COMPONENT_COUNT>  (73) 
2

>  <PUBCHEM_COMPOUND_CANONICALIZED>  (73) 
1

>  <PUBCHEM_COMPOUND_CID>  (73) 
16248173

>  <PUBCHEM_COORDINATE_TYPE>  (73) 
1
5
255

>  <PUBCHEM_EXACT_MASS>  (73) 
381.157623

>  <PUBCHEM_HEAVY_ATOM_COUNT>  (73) 
28

>  <PUBCHEM_ISOTOPIC_ATOM_COUNT>  (73) 
0

>  <PUBCHEM_IUPAC_CAS_NAME>  (73) 
N-[(2-methoxy-1-naphthalenyl)methyl]-1-(4-methylphenyl)methanamine; oxalic acid

>  <PUBCHEM_IUPAC_INCHI>  (73) 
InChI=1S/C20H21NO.C2H2O4/c1-15-7-9-16(10-8-15)13-21-14-19-18-6-4-3-5-17(18)11-12-20(19)22-2;3-1(4)2(5)6/h3-12,21H,13-14H2,1-2H3;(H,3,4)(H,5,6)

>  <PUBCHEM_IUPAC_INCHIKEY>  (73) 
SBCJXNKVQHWRRJ-UHFFFAOYSA-N

>  <PUBCHEM_IUPAC_NAME>  (73) 
N-[(2-methoxynaphthalen-1-yl)methyl]-1-(4-methylphenyl)methanamine; oxalic acid

>  <PUBCHEM_IUPAC_OPENEYE_NAME>  (73) 
N-[(2-methoxy-1-naphthyl)methyl]-1-(p-tolyl)methanamine; oxalic acid

>  <PUBCHEM_IUPAC_SYSTEMATIC_NAME>  (73) 
ethanedioic acid; N-[(2-methoxynaphthalen-1-yl)methyl]-1-(4-methylphenyl)methanamine

>  <PUBCHEM_IUPAC_TRADITIONAL_NAME>  (73) 
(2-methoxy-1-naphthyl)methyl-(4-methylbenzyl)amine; oxalic acid

>  <PUBCHEM_MOLECULAR_FORMULA>  (73) 
C22H23NO5

>  <PUBCHEM_MOLECULAR_WEIGHT>  (73) 
381.42172

>  <PUBCHEM_MONOISOTOPIC_WEIGHT>  (73) 
381.157623

>  <PUBCHEM_OPENEYE_CAN_SMILES>  (73) 
CC1=CC=C(C=C1)CNCC2=C(C=CC3=CC=CC=C32)OC.C(=O)(C(=O)O)O

>  <PUBCHEM_OPENEYE_ISO_SMILES>  (73) 
CC1=CC=C(C=C1)CNCC2=C(C=CC3=CC=CC=C32)OC.C(=O)(C(=O)O)O

>  <PUBCHEM_TOTAL_CHARGE>  (73) 
0

$$$$
Largest isolated from Written by BCL::WriteToMDL,1476513
     RDKit          2D

 37 39  0 37  0  0  0  0  0  0999 V2000
    3.9144    2.9118    0.0000 Cl  0  0  0  0  0  0  0  0  0  0  0  0
   -7.6168    1.6264    0.0000 Cl  0  0  0  0  0  0  0  0  0  0  0  0
   -0.1097   -0.9513    0.0000 S   0  0  0  0  0  0  0  0  0  0  0  0
    8.1633   -2.0578    0.0000 F   0  0  0  0  0  0  0  0  0  0  0  0
    6.1568   -2.7464    0.0000 F   0  0  0  0  0  0  0  0  0  0  0  0
    7.4747   -0.0514    0.0000 F   0  0  0  0  0  0  0  0  0  0  0  0
   -3.1027   -3.5575    0.0000 O   0  0  0  0  0  0  0  0  0  0  0  0
    1.4256    1.2368    0.0000 N   0  0  0  0  0  0  0  0  0  0  0  0
    2.8763   -0.9186    0.0000 N   0  0  0  0  0  0  0  0  0  0  0  0
   -0.9774    1.5770    0.0000 N   0  0  0  0  0  0  0  0  0  0  0  0
    2.7732    0.5779    0.0000 C   0  0  0  0  0  0  0  0  0  0  0  0
    0.1005    0.5339    0.0000 C   0  0  0  0  0  0  0  0  0  0  0  0
    4.0176    1.4154    0.0000 C   0  0  0  0  0  0  0  0  0  0  0  0
    1.1667    2.7142    0.0000 C   0  0  0  0  0  0  0  0  0  0  0  0
    5.4682   -0.7400    0.0000 C   0  0  0  0  0  0  0  0  0  0  0  0
   -1.5011   -1.5118    0.0000 C   0  0  0  0  0  0  0  0  0  0  0  0
    5.3651    0.7565    0.0000 C   0  0  0  0  0  0  0  0  0  0  0  0
   -4.0735   -1.1476    0.0000 C   0  0  0  0  0  0  0  0  0  0  0  0
   -2.8924   -2.0723    0.0000 C   0  0  0  0  0  0  0  0  0  0  0  0
    4.2238   -1.5775    0.0000 C   0  0  0  0  0  0  0  0  0  0  0  0
   -0.3185    2.9245    0.0000 C   0  0  0  0  0  0  0  0  0  0  0  0
    6.8158   -1.3989    0.0000 C   0  0  0  0  0  0  0  0  0  0  0  0
   -3.8633    0.3376    0.0000 C   0  0  0  0  0  0  0  0  0  0  0  0
   -5.4649   -1.7081    0.0000 C   0  0  0  0  0  0  0  0  0  0  0  0
   -5.0443    1.2623    0.0000 C   0  0  0  0  0  0  0  0  0  0  0  0
   -6.6459   -0.7834    0.0000 C   0  0  0  0  0  0  0  0  0  0  0  0
   -6.4357    0.7018    0.0000 C   0  0  0  0  0  0  0  0  0  0  0  0
    2.2097    3.7922    0.0000 H   0  0  0  0  0  0  0  0  0  0  0  0
   -0.9406   -2.9031    0.0000 H   0  0  0  0  0  0  0  0  0  0  0  0
   -2.0616   -0.1205    0.0000 H   0  0  0  0  0  0  0  0  0  0  0  0
    6.6095    1.5940    0.0000 H   0  0  0  0  0  0  0  0  0  0  0  0
    4.3269   -3.0740    0.0000 H   0  0  0  0  0  0  0  0  0  0  0  0
   -1.0214    4.2496    0.0000 H   0  0  0  0  0  0  0  0  0  0  0  0
   -2.4719    0.8981    0.0000 H   0  0  0  0  0  0  0  0  0  0  0  0
   -5.6751   -3.1933    0.0000 H   0  0  0  0  0  0  0  0  0  0  0  0
   -4.8341    2.7475    0.0000 H   0  0  0  0  0  0  0  0  0  0  0  0
   -8.0373   -1.3439    0.0000 H   0  0  0  0  0  0  0  0  0  0  0  0
  1 13  1  0
  2 27  1  0
  3 12  1  0
  3 16  1  0
  4 22  1  0
  5 22  1  0
  6 22  1  0
  7 19  2  0
  8 11  1  0
  8 12  1  0
  8 14  1  0
  9 11  2  0
  9 20  1  0
 10 12  2  0
 10 21  1  0
 11 13  1  0
 13 17  2  0
 14 21  2  0
 14 28  1  0
 15 17  1  0
 15 20  2  0
 15 22  1  0
 16 19  1  0
 16 29  1  0
 16 30  1  0
 17 31  1  0
 18 19  1  0
 18 23  2  0
 18 24  1  0
 20 32  1  0
 21 33  1  0
 23 25  1  0
 23 34  1  0
 24 26  2  0
 24 35  1  0
 25 27  2  0
 25 36  1  0
 26 27  1  0
 26 37  1  0
M  STY  8   1 DAT   2 DAT   3 DAT   4 DAT   5 DAT   6 DAT   7 DAT   8 DAT
M  STY  8   9 DAT  10 DAT  11 DAT  12 DAT  13 DAT  14 DAT  15 DAT  16 DAT
M  STY  8  17 DAT  18 DAT  19 DAT  20 DAT  21 DAT  22 DAT  23 DAT  24 DAT
M  STY  8  25 DAT  26 DAT  27 DAT  28 DAT  29 DAT  30 DAT  31 DAT  32 DAT
M  STY  5  33 DAT  34 DAT  35 DAT  36 DAT  37 DAT
M  SAL   1  1   1
M  SED   1 [#17&h0]
M  SAL   2  1   2
M  SED   2 [#17&h0]
M  SAL   3  1   3
M  SED   3 [#16&h0]
M  SAL   4  1   4
M  SED   4 [#9&h0]
M  SAL   5  1   5
M  SED   5 [#9&h0]
M  SAL   6  1   6
M  SED   6 [#9&h0]
M  SAL   7  1   7
M  SED   7 [#8&h0]
M  SAL   8  1   8
M  SED   8 [#7&h0]
M  SAL   9  1   9
M  SED   9 [#7&h0]
M  SAL  10  1  10
M  SED  10 [#7&h0]
M  SAL  11  1  11
M  SED  11 [#6&h0]
M  SAL  12  1  12
M  SED  12 [#6&h0]
M  SAL  13  1  13
M  SED  13 [#6&h0]
M  SAL  14  1  14
M  SED  14 [#6&h0]
M  SAL  15  1  15
M  SED  15 [#6&h0]
M  SAL  16  1  16
M  SED  16 [#6&h0]
M  SAL  17  1  17
M  SED  17 [#6&h0]
M  SAL  18  1  18
M  SED  18 [#6&h0]
M  SAL  19  1  19
M  SED  19 [#6&h0]
M  SAL  20  1  20
M  SED  20 [#6&h0]
M  SAL  21  1  21
M  SED  21 [#6&h0]
M  SAL  22  1  22
M  SED  22 [#6&h0]
M  SAL  23  1  23
M  SED  23 [#6&h0]
M  SAL  24  1  24
M  SED  24 [#6&h0]
M  SAL  25  1  25
M  SED  25 [#6&h0]
M  SAL  26  1  26
M  SED  26 [#6&h0]
M  SAL  27  1  27
M  SED  27 [#6&h0]
M  SAL  28  1  28
M  SED  28 [#1&h0]
M  SAL  29  1  29
M  SED  29 [#1&h0]
M  SAL  30  1  30
M  SED  30 [#1&h0]
M  SAL  31  1  31
M  SED  31 [#1&h0]
M  SAL  32  1  32
M  SED  32 [#1&h0]
M  SAL  33  1  33
M  SED  33 [#1&h0]
M  SAL  34  1  34
M  SED  34 [#1&h0]
M  SAL  35  1  35
M  SED  35 [#1&h0]
M  SAL  36  1  36
M  SED  36 [#1&h0]
M  SAL  37  1  37
M  SED  37 [#1&h0]
M  END
>  <Activity>  (74) 
0.01

>  <Mapped(file=2032.csv.activities,property=Cached(PUBCHEM_COMPOUND_CID))>  (74) 
100

>  <MatchIndices>  (74) 
170 

>  <PUBCHEM_ATOM_DEF_STEREO_COUNT>  (74) 
0

>  <PUBCHEM_ATOM_UDEF_STEREO_COUNT>  (74) 
0

>  <PUBCHEM_BONDANNOTATIONS>  (74) 
10  12  8
10  21  8
11  13  8
13  17  8
14  21  8
15  17  8
15  20  8
18  23  8
18  24  8
23  25  8
24  26  8
25  27  8
26  27  8
8  12  8
8  14  8
9  11  8
9  20  8

>  <PUBCHEM_BOND_DEF_STEREO_COUNT>  (74) 
0

>  <PUBCHEM_BOND_UDEF_STEREO_COUNT>  (74) 
0

>  <PUBCHEM_CACTVS_COMPLEXITY>  (74) 
520

>  <PUBCHEM_CACTVS_HBOND_ACCEPTOR>  (74) 
6

>  <PUBCHEM_CACTVS_HBOND_DONOR>  (74) 
0

>  <PUBCHEM_CACTVS_ROTATABLE_BOND>  (74) 
5

>  <PUBCHEM_CACTVS_SUBSKEYS>  (74) 
AAADccB7IYBGAAAAAAAAAAAAAAAAAWAAAAA8QAAAAAAAAAAB8AAAHwYAAAAADAbF2jS9sJcMEAioArJ3ZACC0C11F7AJ2CE4dtiIaPLhn5HUIQhogALIyacYiICOBAAAAAAAAAAIAAAAAAAAAAAAAAAAAA==

>  <PUBCHEM_CACTVS_TAUTO_COUNT>  (74) 
2

>  <PUBCHEM_CACTVS_TPSA>  (74) 
73.1

>  <PUBCHEM_COMPONENT_COUNT>  (74) 
1

>  <PUBCHEM_COMPOUND_CANONICALIZED>  (74) 
1

>  <PUBCHEM_COMPOUND_CID>  (74) 
1476513

>  <PUBCHEM_COORDINATE_TYPE>  (74) 
1
5
255

>  <PUBCHEM_EXACT_MASS>  (74) 
430.987373

>  <PUBCHEM_HEAVY_ATOM_COUNT>  (74) 
27

>  <PUBCHEM_ISOTOPIC_ATOM_COUNT>  (74) 
0

>  <PUBCHEM_IUPAC_CAS_NAME>  (74) 
1-(4-chlorophenyl)-2-[[1-[3-chloro-5-(trifluoromethyl)-2-pyridinyl]-2-imidazolyl]thio]ethanone

>  <PUBCHEM_IUPAC_INCHI>  (74) 
InChI=1S/C17H10Cl2F3N3OS/c18-12-3-1-10(2-4-12)14(26)9-27-16-23-5-6-25(16)15-13(19)7-11(8-24-15)17(20,21)22/h1-8H,9H2

>  <PUBCHEM_IUPAC_INCHIKEY>  (74) 
ANNWRJXOLOYOMV-UHFFFAOYSA-N

>  <PUBCHEM_IUPAC_NAME>  (74) 
1-(4-chlorophenyl)-2-[1-[3-chloro-5-(trifluoromethyl)pyridin-2-yl]imidazol-2-yl]sulfanylethanone

>  <PUBCHEM_IUPAC_OPENEYE_NAME>  (74) 
1-(4-chlorophenyl)-2-[1-[3-chloro-5-(trifluoromethyl)-2-pyridyl]imidazol-2-yl]sulfanyl-ethanone

>  <PUBCHEM_IUPAC_SYSTEMATIC_NAME>  (74) 
2-[1-[3-chloranyl-5-(trifluoromethyl)pyridin-2-yl]imidazol-2-yl]sulfanyl-1-(4-chlorophenyl)ethanone

>  <PUBCHEM_IUPAC_TRADITIONAL_NAME>  (74) 
1-(4-chlorophenyl)-2-[[1-[3-chloro-5-(trifluoromethyl)-2-pyridyl]imidazol-2-yl]thio]ethanone

>  <PUBCHEM_MOLECULAR_FORMULA>  (74) 
C17H10Cl2F3N3OS

>  <PUBCHEM_MOLECULAR_WEIGHT>  (74) 
432.24701

>  <PUBCHEM_MONOISOTOPIC_WEIGHT>  (74) 
430.987373

>  <PUBCHEM_OPENEYE_CAN_SMILES>  (74) 
C1=CC(=CC=C1C(=O)CSC2=NC=CN2C3=C(C=C(C=N3)C(F)(F)F)Cl)Cl

>  <PUBCHEM_OPENEYE_ISO_SMILES>  (74) 
C1=CC(=CC=C1C(=O)CSC2=NC=CN2C3=C(C=C(C=N3)C(F)(F)F)Cl)Cl

>  <PUBCHEM_TOTAL_CHARGE>  (74) 
0

>  <PUBCHEM_XLOGP3_AA>  (74) 
5.3

$$$$
Largest isolated from Written by BCL::WriteToMDL,19579917
     RDKit          2D

 36 36  0 36  0  0  0  0  0  0999 V2000
    0.0859    1.8256    0.0000 Br  0  0  0  0  0  0  0  0  0  0  0  0
    0.5393   -1.1399    0.0000 O   0  0  0  0  0  0  0  0  0  0  0  0
   -1.8023   -3.0153    0.0000 O   0  0  0  0  0  0  0  0  0  0  0  0
   -6.6747    3.0682    0.0000 O   0  0  0  0  0  0  0  0  0  0  0  0
   -5.2772    2.5232    0.0000 N   0  0  0  0  0  0  0  0  0  0  0  0
    2.8809    0.7355    0.0000 C   0  0  0  0  0  0  0  0  0  0  0  0
    1.7101   -0.2022    0.0000 C   0  0  0  0  0  0  0  0  0  0  0  0
    4.0516    1.6732    0.0000 C   0  0  0  0  0  0  0  0  0  0  0  0
   -0.8582   -0.5948    0.0000 C   0  0  0  0  0  0  0  0  0  0  0  0
   -2.0289   -1.5325    0.0000 C   0  0  0  0  0  0  0  0  0  0  0  0
    5.2224    2.6109    0.0000 C   0  0  0  0  0  0  0  0  0  0  0  0
   -1.0848    0.8879    0.0000 C   0  0  0  0  0  0  0  0  0  0  0  0
   -3.4264   -0.9875    0.0000 C   0  0  0  0  0  0  0  0  0  0  0  0
   -3.6531    0.4953    0.0000 C   0  0  0  0  0  0  0  0  0  0  0  0
   -2.4823    1.4330    0.0000 C   0  0  0  0  0  0  0  0  0  0  0  0
   -0.4048   -3.5604    0.0000 C   0  0  0  0  0  0  0  0  0  0  0  0
   -5.0505    1.0404    0.0000 C   0  0  0  0  0  0  0  0  0  0  0  0
    0.9927   -4.1055    0.0000 C   0  0  0  0  0  0  0  0  0  0  0  0
    3.8186   -0.4353    0.0000 H   0  0  0  0  0  0  0  0  0  0  0  0
    1.9432    1.9062    0.0000 H   0  0  0  0  0  0  0  0  0  0  0  0
    2.6478   -1.3730    0.0000 H   0  0  0  0  0  0  0  0  0  0  0  0
    0.7724    0.9686    0.0000 H   0  0  0  0  0  0  0  0  0  0  0  0
    3.1139    2.8439    0.0000 H   0  0  0  0  0  0  0  0  0  0  0  0
    4.9893    0.5024    0.0000 H   0  0  0  0  0  0  0  0  0  0  0  0
    6.1601    1.4401    0.0000 H   0  0  0  0  0  0  0  0  0  0  0  0
    4.2847    3.7816    0.0000 H   0  0  0  0  0  0  0  0  0  0  0  0
    6.3932    3.5486    0.0000 H   0  0  0  0  0  0  0  0  0  0  0  0
   -4.5972   -1.9252    0.0000 H   0  0  0  0  0  0  0  0  0  0  0  0
   -2.7090    2.9158    0.0000 H   0  0  0  0  0  0  0  0  0  0  0  0
   -0.9499   -4.9579    0.0000 H   0  0  0  0  0  0  0  0  0  0  0  0
    0.1403   -2.1629    0.0000 H   0  0  0  0  0  0  0  0  0  0  0  0
   -6.2213    0.1027    0.0000 H   0  0  0  0  0  0  0  0  0  0  0  0
    0.4476   -5.5029    0.0000 H   0  0  0  0  0  0  0  0  0  0  0  0
    1.5377   -2.7080    0.0000 H   0  0  0  0  0  0  0  0  0  0  0  0
    2.3901   -4.6505    0.0000 H   0  0  0  0  0  0  0  0  0  0  0  0
   -6.9014    4.5510    0.0000 H   0  0  0  0  0  0  0  0  0  0  0  0
  1 12  1  0
  2  7  1  0
  2  9  1  0
  3 10  1  0
  3 16  1  0
  4  5  1  0
  4 36  1  0
  5 17  2  0
  6  7  1  0
  6  8  1  0
  6 19  1  0
  6 20  1  0
  7 21  1  0
  7 22  1  0
  8 11  1  0
  8 23  1  0
  8 24  1  0
  9 10  2  0
  9 12  1  0
 10 13  1  0
 11 25  1  0
 11 26  1  0
 11 27  1  0
 12 15  2  0
 13 14  2  0
 13 28  1  0
 14 15  1  0
 14 17  1  0
 15 29  1  0
 16 18  1  0
 16 30  1  0
 16 31  1  0
 17 32  1  0
 18 33  1  0
 18 34  1  0
 18 35  1  0
M  STY  8   1 DAT   2 DAT   3 DAT   4 DAT   5 DAT   6 DAT   7 DAT   8 DAT
M  STY  8   9 DAT  10 DAT  11 DAT  12 DAT  13 DAT  14 DAT  15 DAT  16 DAT
M  STY  8  17 DAT  18 DAT  19 DAT  20 DAT  21 DAT  22 DAT  23 DAT  24 DAT
M  STY  8  25 DAT  26 DAT  27 DAT  28 DAT  29 DAT  30 DAT  31 DAT  32 DAT
M  STY  4  33 DAT  34 DAT  35 DAT  36 DAT
M  SAL   1  1   1
M  SED   1 [#35&h0]
M  SAL   2  1   2
M  SED   2 [#8&h0]
M  SAL   3  1   3
M  SED   3 [#8&h0]
M  SAL   4  1   4
M  SED   4 [#8&h0]
M  SAL   5  1   5
M  SED   5 [#7&h0]
M  SAL   6  1   6
M  SED   6 [#6&h0]
M  SAL   7  1   7
M  SED   7 [#6&h0]
M  SAL   8  1   8
M  SED   8 [#6&h0]
M  SAL   9  1   9
M  SED   9 [#6&h0]
M  SAL  10  1  10
M  SED  10 [#6&h0]
M  SAL  11  1  11
M  SED  11 [#6&h0]
M  SAL  12  1  12
M  SED  12 [#6&h0]
M  SAL  13  1  13
M  SED  13 [#6&h0]
M  SAL  14  1  14
M  SED  14 [#6&h0]
M  SAL  15  1  15
M  SED  15 [#6&h0]
M  SAL  16  1  16
M  SED  16 [#6&h0]
M  SAL  17  1  17
M  SED  17 [#6&h0]
M  SAL  18  1  18
M  SED  18 [#6&h0]
M  SAL  19  1  19
M  SED  19 [#1&h0]
M  SAL  20  1  20
M  SED  20 [#1&h0]
M  SAL  21  1  21
M  SED  21 [#1&h0]
M  SAL  22  1  22
M  SED  22 [#1&h0]
M  SAL  23  1  23
M  SED  23 [#1&h0]
M  SAL  24  1  24
M  SED  24 [#1&h0]
M  SAL  25  1  25
M  SED  25 [#1&h0]
M  SAL  26  1  26
M  SED  26 [#1&h0]
M  SAL  27  1  27
M  SED  27 [#1&h0]
M  SAL  28  1  28
M  SED  28 [#1&h0]
M  SAL  29  1  29
M  SED  29 [#1&h0]
M  SAL  30  1  30
M  SED  30 [#1&h0]
M  SAL  31  1  31
M  SED  31 [#1&h0]
M  SAL  32  1  32
M  SED  32 [#1&h0]
M  SAL  33  1  33
M  SED  33 [#1&h0]
M  SAL  34  1  34
M  SED  34 [#1&h0]
M  SAL  35  1  35
M  SED  35 [#1&h0]
M  SAL  36  1  36
M  SED  36 [#1&h0]
M  END
>  <Activity>  (75) 
0.01

>  <Mapped(file=2032.csv.activities,property=Cached(PUBCHEM_COMPOUND_CID))>  (75) 
100

>  <MatchIndices>  (75) 
182 

>  <PUBCHEM_ATOM_DEF_STEREO_COUNT>  (75) 
0

>  <PUBCHEM_ATOM_UDEF_STEREO_COUNT>  (75) 
0

>  <PUBCHEM_BONDANNOTATIONS>  (75) 
10  13  8
12  15  8
13  14  8
14  15  8
9  10  8
9  12  8

>  <PUBCHEM_BOND_DEF_STEREO_COUNT>  (75) 
1

>  <PUBCHEM_BOND_UDEF_STEREO_COUNT>  (75) 
0

>  <PUBCHEM_CACTVS_COMPLEXITY>  (75) 
250

>  <PUBCHEM_CACTVS_HBOND_ACCEPTOR>  (75) 
4

>  <PUBCHEM_CACTVS_HBOND_DONOR>  (75) 
1

>  <PUBCHEM_CACTVS_ROTATABLE_BOND>  (75) 
7

>  <PUBCHEM_CACTVS_SUBSKEYS>  (75) 
AAADceByMAAAEAAAAAAAAAAAAAAAAAAAAAAwAAAAAAAAAAABAAAAHgBECAABrAThmAYyBoAQBACgAjBjAAACCAAgIAQAiAAmiLgNJqKEMRqCOCKkwBEKqheAwBAOIAABEIAARABAAAIhAACIAAAAAAAAAA==

>  <PUBCHEM_CACTVS_TAUTO_COUNT>  (75) 
2

>  <PUBCHEM_CACTVS_TPSA>  (75) 
51

>  <PUBCHEM_COMPONENT_COUNT>  (75) 
1

>  <PUBCHEM_COMPOUND_CANONICALIZED>  (75) 
1

>  <PUBCHEM_COMPOUND_CID>  (75) 
19579917

>  <PUBCHEM_COORDINATE_TYPE>  (75) 
1
5
255

>  <PUBCHEM_EXACT_MASS>  (75) 
315.047006

>  <PUBCHEM_HEAVY_ATOM_COUNT>  (75) 
18

>  <PUBCHEM_ISOTOPIC_ATOM_COUNT>  (75) 
0

>  <PUBCHEM_IUPAC_CAS_NAME>  (75) 
(1E)-3-bromo-4-butoxy-5-ethoxybenzaldehyde oxime

>  <PUBCHEM_IUPAC_INCHI>  (75) 
InChI=1S/C13H18BrNO3/c1-3-5-6-18-13-11(14)7-10(9-15-16)8-12(13)17-4-2/h7-9,16H,3-6H2,1-2H3/b15-9+

>  <PUBCHEM_IUPAC_INCHIKEY>  (75) 
QJNADSGVMFOGFF-OQLLNIDSSA-N

>  <PUBCHEM_IUPAC_NAME>  (75) 
(NE)-N-[(3-bromo-4-butoxy-5-ethoxyphenyl)methylidene]hydroxylamine

>  <PUBCHEM_IUPAC_OPENEYE_NAME>  (75) 
(1E)-3-bromo-4-butoxy-5-ethoxy-benzaldehyde oxime

>  <PUBCHEM_IUPAC_SYSTEMATIC_NAME>  (75) 
(NE)-N-[(3-bromanyl-4-butoxy-5-ethoxy-phenyl)methylidene]hydroxylamine

>  <PUBCHEM_IUPAC_TRADITIONAL_NAME>  (75) 
(1E)-3-bromo-4-butoxy-5-ethoxy-benzaldoxime

>  <PUBCHEM_MOLECULAR_FORMULA>  (75) 
C13H18BrNO3

>  <PUBCHEM_MOLECULAR_WEIGHT>  (75) 
316.19092

>  <PUBCHEM_MONOISOTOPIC_WEIGHT>  (75) 
315.047006

>  <PUBCHEM_OPENEYE_CAN_SMILES>  (75) 
CCCCOC1=C(C=C(C=C1Br)C=NO)OCC

>  <PUBCHEM_OPENEYE_ISO_SMILES>  (75) 
CCCCOC1=C(C=C(C=C1Br)/C=N/O)OCC

>  <PUBCHEM_TOTAL_CHARGE>  (75) 
0

>  <PUBCHEM_XLOGP3_AA>  (75) 
3.9

$$$$
Largest isolated from Written by BCL::WriteToMDL,2934578
     RDKit          2D

 52 53  0 52  0  0  0  0  0  0999 V2000
    3.4331   -1.8478    0.0000 O   0  0  0  0  0  0  0  0  0  0  0  0
   -4.0667   -1.9050    0.0000 N   0  0  0  0  0  0  0  0  0  0  0  0
   -1.0668   -1.8822    0.0000 C   0  0  0  0  0  0  0  0  0  0  0  0
   -2.5667   -1.8936    0.0000 C   0  0  0  0  0  0  0  0  0  0  0  0
    0.4332   -1.8707    0.0000 C   0  0  0  0  0  0  0  0  0  0  0  0
   -4.8266   -0.6118    0.0000 C   0  0  0  0  0  0  0  0  0  0  0  0
    1.9331   -1.8593    0.0000 C   0  0  0  0  0  0  0  0  0  0  0  0
   -4.8068   -3.2098    0.0000 C   0  0  0  0  0  0  0  0  0  0  0  0
   -5.5865    0.6815    0.0000 C   0  0  0  0  0  0  0  0  0  0  0  0
    4.1732   -0.5431    0.0000 C   0  0  0  0  0  0  0  0  0  0  0  0
    5.6731   -0.5317    0.0000 C   0  0  0  0  0  0  0  0  0  0  0  0
    6.4132    0.7730    0.0000 C   0  0  0  0  0  0  0  0  0  0  0  0
    3.4133    0.7502    0.0000 C   0  0  0  0  0  0  0  0  0  0  0  0
    4.1533    2.0549    0.0000 C   0  0  0  0  0  0  0  0  0  0  0  0
    5.6533    2.0663    0.0000 C   0  0  0  0  0  0  0  0  0  0  0  0
   -4.8464    1.9862    0.0000 C   0  0  0  0  0  0  0  0  0  0  0  0
   -7.0864    0.6701    0.0000 C   0  0  0  0  0  0  0  0  0  0  0  0
    6.4330   -1.8250    0.0000 C   0  0  0  0  0  0  0  0  0  0  0  0
    7.9131    0.7845    0.0000 C   0  0  0  0  0  0  0  0  0  0  0  0
    3.3935    3.3482    0.0000 C   0  0  0  0  0  0  0  0  0  0  0  0
   -5.6063    3.2795    0.0000 C   0  0  0  0  0  0  0  0  0  0  0  0
   -7.8463    1.9634    0.0000 C   0  0  0  0  0  0  0  0  0  0  0  0
   -7.1062    3.2681    0.0000 C   0  0  0  0  0  0  0  0  0  0  0  0
   -1.0782   -0.3822    0.0000 H   0  0  0  0  0  0  0  0  0  0  0  0
   -1.0553   -3.3821    0.0000 H   0  0  0  0  0  0  0  0  0  0  0  0
   -2.5553   -3.3936    0.0000 H   0  0  0  0  0  0  0  0  0  0  0  0
   -2.5782   -0.3936    0.0000 H   0  0  0  0  0  0  0  0  0  0  0  0
    0.4217   -0.3708    0.0000 H   0  0  0  0  0  0  0  0  0  0  0  0
    0.4446   -3.3707    0.0000 H   0  0  0  0  0  0  0  0  0  0  0  0
   -6.1199   -1.3717    0.0000 H   0  0  0  0  0  0  0  0  0  0  0  0
   -3.5333    0.1481    0.0000 H   0  0  0  0  0  0  0  0  0  0  0  0
    1.9446   -3.3592    0.0000 H   0  0  0  0  0  0  0  0  0  0  0  0
    1.9217   -0.3593    0.0000 H   0  0  0  0  0  0  0  0  0  0  0  0
   -6.1115   -2.4697    0.0000 H   0  0  0  0  0  0  0  0  0  0  0  0
   -3.5020   -3.9498    0.0000 H   0  0  0  0  0  0  0  0  0  0  0  0
   -5.5468   -4.5145    0.0000 H   0  0  0  0  0  0  0  0  0  0  0  0
    1.9133    0.7387    0.0000 H   0  0  0  0  0  0  0  0  0  0  0  0
    6.3934    3.3710    0.0000 H   0  0  0  0  0  0  0  0  0  0  0  0
   -3.3464    1.9977    0.0000 H   0  0  0  0  0  0  0  0  0  0  0  0
   -7.8265   -0.6346    0.0000 H   0  0  0  0  0  0  0  0  0  0  0  0
    5.1397   -2.5848    0.0000 H   0  0  0  0  0  0  0  0  0  0  0  0
    7.5478   -1.3417    0.0000 H   0  0  0  0  0  0  0  0  0  0  0  0
    7.1929   -3.1182    0.0000 H   0  0  0  0  0  0  0  0  0  0  0  0
    8.0704   -0.4203    0.0000 H   0  0  0  0  0  0  0  0  0  0  0  0
    7.9017    2.2844    0.0000 H   0  0  0  0  0  0  0  0  0  0  0  0
    9.4131    0.7959    0.0000 H   0  0  0  0  0  0  0  0  0  0  0  0
    4.6867    4.1080    0.0000 H   0  0  0  0  0  0  0  0  0  0  0  0
    2.1002    2.5883    0.0000 H   0  0  0  0  0  0  0  0  0  0  0  0
    2.6336    4.6414    0.0000 H   0  0  0  0  0  0  0  0  0  0  0  0
   -4.8662    4.5842    0.0000 H   0  0  0  0  0  0  0  0  0  0  0  0
   -9.3463    1.9519    0.0000 H   0  0  0  0  0  0  0  0  0  0  0  0
   -7.8661    4.5614    0.0000 H   0  0  0  0  0  0  0  0  0  0  0  0
  1  7  1  0
  1 10  1  0
  2  4  1  0
  2  6  1  0
  2  8  1  0
  3  4  1  0
  3  5  1  0
  3 24  1  0
  3 25  1  0
  4 26  1  0
  4 27  1  0
  5  7  1  0
  5 28  1  0
  5 29  1  0
  6  9  1  0
  6 30  1  0
  6 31  1  0
  7 32  1  0
  7 33  1  0
  8 34  1  0
  8 35  1  0
  8 36  1  0
  9 16  2  0
  9 17  1  0
 10 11  2  0
 10 13  1  0
 11 12  1  0
 11 18  1  0
 12 15  2  0
 12 19  1  0
 13 14  2  0
 13 37  1  0
 14 15  1  0
 14 20  1  0
 15 38  1  0
 16 21  1  0
 16 39  1  0
 17 22  2  0
 17 40  1  0
 18 41  1  0
 18 42  1  0
 18 43  1  0
 19 44  1  0
 19 45  1  0
 19 46  1  0
 20 47  1  0
 20 48  1  0
 20 49  1  0
 21 23  2  0
 21 50  1  0
 22 23  1  0
 22 51  1  0
 23 52  1  0
M  STY  8   1 DAT   2 DAT   3 DAT   4 DAT   5 DAT   6 DAT   7 DAT   8 DAT
M  STY  8   9 DAT  10 DAT  11 DAT  12 DAT  13 DAT  14 DAT  15 DAT  16 DAT
M  STY  8  17 DAT  18 DAT  19 DAT  20 DAT  21 DAT  22 DAT  23 DAT  24 DAT
M  STY  8  25 DAT  26 DAT  27 DAT  28 DAT  29 DAT  30 DAT  31 DAT  32 DAT
M  STY  8  33 DAT  34 DAT  35 DAT  36 DAT  37 DAT  38 DAT  39 DAT  40 DAT
M  STY  8  41 DAT  42 DAT  43 DAT  44 DAT  45 DAT  46 DAT  47 DAT  48 DAT
M  STY  4  49 DAT  50 DAT  51 DAT  52 DAT
M  SAL   1  1   1
M  SED   1 [#8&h0]
M  SAL   2  1   2
M  SED   2 [#7&h0]
M  SAL   3  1   3
M  SED   3 [#6&h0]
M  SAL   4  1   4
M  SED   4 [#6&h0]
M  SAL   5  1   5
M  SED   5 [#6&h0]
M  SAL   6  1   6
M  SED   6 [#6&h0]
M  SAL   7  1   7
M  SED   7 [#6&h0]
M  SAL   8  1   8
M  SED   8 [#6&h0]
M  SAL   9  1   9
M  SED   9 [#6&h0]
M  SAL  10  1  10
M  SED  10 [#6&h0]
M  SAL  11  1  11
M  SED  11 [#6&h0]
M  SAL  12  1  12
M  SED  12 [#6&h0]
M  SAL  13  1  13
M  SED  13 [#6&h0]
M  SAL  14  1  14
M  SED  14 [#6&h0]
M  SAL  15  1  15
M  SED  15 [#6&h0]
M  SAL  16  1  16
M  SED  16 [#6&h0]
M  SAL  17  1  17
M  SED  17 [#6&h0]
M  SAL  18  1  18
M  SED  18 [#6&h0]
M  SAL  19  1  19
M  SED  19 [#6&h0]
M  SAL  20  1  20
M  SED  20 [#6&h0]
M  SAL  21  1  21
M  SED  21 [#6&h0]
M  SAL  22  1  22
M  SED  22 [#6&h0]
M  SAL  23  1  23
M  SED  23 [#6&h0]
M  SAL  24  1  24
M  SED  24 [#1&h0]
M  SAL  25  1  25
M  SED  25 [#1&h0]
M  SAL  26  1  26
M  SED  26 [#1&h0]
M  SAL  27  1  27
M  SED  27 [#1&h0]
M  SAL  28  1  28
M  SED  28 [#1&h0]
M  SAL  29  1  29
M  SED  29 [#1&h0]
M  SAL  30  1  30
M  SED  30 [#1&h0]
M  SAL  31  1  31
M  SED  31 [#1&h0]
M  SAL  32  1  32
M  SED  32 [#1&h0]
M  SAL  33  1  33
M  SED  33 [#1&h0]
M  SAL  34  1  34
M  SED  34 [#1&h0]
M  SAL  35  1  35
M  SED  35 [#1&h0]
M  SAL  36  1  36
M  SED  36 [#1&h0]
M  SAL  37  1  37
M  SED  37 [#1&h0]
M  SAL  38  1  38
M  SED  38 [#1&h0]
M  SAL  39  1  39
M  SED  39 [#1&h0]
M  SAL  40  1  40
M  SED  40 [#1&h0]
M  SAL  41  1  41
M  SED  41 [#1&h0]
M  SAL  42  1  42
M  SED  42 [#1&h0]
M  SAL  43  1  43
M  SED  43 [#1&h0]
M  SAL  44  1  44
M  SED  44 [#1&h0]
M  SAL  45  1  45
M  SED  45 [#1&h0]
M  SAL  46  1  46
M  SED  46 [#1&h0]
M  SAL  47  1  47
M  SED  47 [#1&h0]
M  SAL  48  1  48
M  SED  48 [#1&h0]
M  SAL  49  1  49
M  SED  49 [#1&h0]
M  SAL  50  1  50
M  SED  50 [#1&h0]
M  SAL  51  1  51
M  SED  51 [#1&h0]
M  SAL  52  1  52
M  SED  52 [#1&h0]
M  END
>  <Activity>  (76) 
0.01

>  <Mapped(file=2032.csv.activities,property=Cached(PUBCHEM_COMPOUND_CID))>  (76) 
100

>  <MatchIndices>  (76) 
190 

>  <PUBCHEM_ATOM_DEF_STEREO_COUNT>  (76) 
0

>  <PUBCHEM_ATOM_UDEF_STEREO_COUNT>  (76) 
0

>  <PUBCHEM_BONDANNOTATIONS>  (76) 
13  20  8
13  21  8
14  15  8
14  17  8
15  16  8
16  19  8
17  18  8
18  19  8
20  25  8
21  26  8
25  27  8
26  27  8

>  <PUBCHEM_BOND_DEF_STEREO_COUNT>  (76) 
0

>  <PUBCHEM_BOND_UDEF_STEREO_COUNT>  (76) 
0

>  <PUBCHEM_CACTVS_COMPLEXITY>  (76) 
385

>  <PUBCHEM_CACTVS_HBOND_ACCEPTOR>  (76) 
6

>  <PUBCHEM_CACTVS_HBOND_DONOR>  (76) 
2

>  <PUBCHEM_CACTVS_ROTATABLE_BOND>  (76) 
9

>  <PUBCHEM_CACTVS_SUBSKEYS>  (76) 
AAADceB6OAAAAAAAAAAAAAAAAAAAAAAAAAAwYAAAAAAAAAABQAAAHgAACAAADAThmAYyDoMABgCIAiDSCAKCCAAgIAAIiABODIgNJiKEsRuGOCjkwBGJqAewwPAOwAADAAAYAACAAAYAADAAAAAAAAAAAA==

>  <PUBCHEM_CACTVS_TAUTO_COUNT>  (76) 
1

>  <PUBCHEM_CACTVS_TPSA>  (76) 
87.1

>  <PUBCHEM_COMPONENT_COUNT>  (76) 
2

>  <PUBCHEM_COMPOUND_CANONICALIZED>  (76) 
1

>  <PUBCHEM_COMPOUND_CID>  (76) 
2934578

>  <PUBCHEM_COORDINATE_TYPE>  (76) 
1
5
255

>  <PUBCHEM_EXACT_MASS>  (76) 
401.220223

>  <PUBCHEM_HEAVY_ATOM_COUNT>  (76) 
29

>  <PUBCHEM_ISOTOPIC_ATOM_COUNT>  (76) 
0

>  <PUBCHEM_IUPAC_CAS_NAME>  (76) 
N-methyl-N-(phenylmethyl)-4-(2,3,5-trimethylphenoxy)-1-butanamine; oxalic acid

>  <PUBCHEM_IUPAC_INCHI>  (76) 
InChI=1S/C21H29NO.C2H2O4/c1-17-14-18(2)19(3)21(15-17)23-13-9-8-12-22(4)16-20-10-6-5-7-11-20;3-1(4)2(5)6/h5-7,10-11,14-15H,8-9,12-13,16H2,1-4H3;(H,3,4)(H,5,6)

>  <PUBCHEM_IUPAC_INCHIKEY>  (76) 
QNXWXRJJUVWBSY-UHFFFAOYSA-N

>  <PUBCHEM_IUPAC_NAME>  (76) 
N-benzyl-N-methyl-4-(2,3,5-trimethylphenoxy)butan-1-amine; oxalic acid

>  <PUBCHEM_IUPAC_OPENEYE_NAME>  (76) 
N-benzyl-N-methyl-4-(2,3,5-trimethylphenoxy)butan-1-amine; oxalic acid

>  <PUBCHEM_IUPAC_SYSTEMATIC_NAME>  (76) 
ethanedioic acid; N-methyl-N-(phenylmethyl)-4-(2,3,5-trimethylphenoxy)butan-1-amine

>  <PUBCHEM_IUPAC_TRADITIONAL_NAME>  (76) 
benzyl-methyl-[4-(2,3,5-trimethylphenoxy)butyl]amine; oxalic acid

>  <PUBCHEM_MOLECULAR_FORMULA>  (76) 
C23H31NO5

>  <PUBCHEM_MOLECULAR_WEIGHT>  (76) 
401.49594

>  <PUBCHEM_MONOISOTOPIC_WEIGHT>  (76) 
401.220223

>  <PUBCHEM_OPENEYE_CAN_SMILES>  (76) 
CC1=CC(=C(C(=C1)OCCCCN(C)CC2=CC=CC=C2)C)C.C(=O)(C(=O)O)O

>  <PUBCHEM_OPENEYE_ISO_SMILES>  (76) 
CC1=CC(=C(C(=C1)OCCCCN(C)CC2=CC=CC=C2)C)C.C(=O)(C(=O)O)O

>  <PUBCHEM_TOTAL_CHARGE>  (76) 
0

$$$$
Largest isolated from Written by BCL::WriteToMDL,2850095
     RDKit          2D

 37 39  0 37  0  0  0  0  0  0999 V2000
   -0.8256    0.0912    0.0000 S   0  0  0  0  0  0  0  0  0  0  0  0
   -2.4885   -4.0903    0.0000 O   0  0  0  0  0  0  0  0  0  0  0  0
   -0.4500   -2.4796    0.0000 O   0  0  0  0  0  0  0  0  0  0  0  0
   -7.6925    0.4008    0.0000 O   0  0  0  0  0  0  0  0  0  0  0  0
   -7.3169   -2.1700    0.0000 O   0  0  0  0  0  0  0  0  0  0  0  0
    1.1822    1.8558    0.0000 N   0  0  0  0  0  0  0  0  0  0  0  0
   -1.0730    2.7527    0.0000 N   0  0  0  0  0  0  0  0  0  0  0  0
   -1.9342   -2.6964    0.0000 N   0  0  0  0  0  0  0  0  0  0  0  0
   -6.7625   -0.7762    0.0000 N   0  0  0  0  0  0  0  0  0  0  0  0
    2.3365    0.8979    0.0000 C   0  0  0  0  0  0  0  0  0  0  0  0
    3.4908   -0.0600    0.0000 C   0  0  0  0  0  0  0  0  0  0  0  0
   -0.2712    1.4850    0.0000 C   0  0  0  0  0  0  0  0  0  0  0  0
    1.2787    3.3527    0.0000 C   0  0  0  0  0  0  0  0  0  0  0  0
   -2.3098   -0.1257    0.0000 C   0  0  0  0  0  0  0  0  0  0  0  0
    3.2384   -1.5386    0.0000 C   0  0  0  0  0  0  0  0  0  0  0  0
    4.8975    0.4607    0.0000 C   0  0  0  0  0  0  0  0  0  0  0  0
   -2.8641   -1.5195    0.0000 C   0  0  0  0  0  0  0  0  0  0  0  0
   -0.1151    3.9070    0.0000 C   0  0  0  0  0  0  0  0  0  0  0  0
   -3.2397    1.0513    0.0000 C   0  0  0  0  0  0  0  0  0  0  0  0
   -4.3484   -1.7363    0.0000 C   0  0  0  0  0  0  0  0  0  0  0  0
   -5.2783   -0.5594    0.0000 C   0  0  0  0  0  0  0  0  0  0  0  0
   -4.7240    0.8345    0.0000 C   0  0  0  0  0  0  0  0  0  0  0  0
    4.3927   -2.4965    0.0000 C   0  0  0  0  0  0  0  0  0  0  0  0
    6.0518   -0.4972    0.0000 C   0  0  0  0  0  0  0  0  0  0  0  0
    5.7994   -1.9758    0.0000 C   0  0  0  0  0  0  0  0  0  0  0  0
    1.3786   -0.2564    0.0000 H   0  0  0  0  0  0  0  0  0  0  0  0
    3.2944    2.0522    0.0000 H   0  0  0  0  0  0  0  0  0  0  0  0
    2.5464    4.1545    0.0000 H   0  0  0  0  0  0  0  0  0  0  0  0
    1.8317   -2.0593    0.0000 H   0  0  0  0  0  0  0  0  0  0  0  0
    5.1500    1.9393    0.0000 H   0  0  0  0  0  0  0  0  0  0  0  0
   -0.4859    5.3605    0.0000 H   0  0  0  0  0  0  0  0  0  0  0  0
   -2.6854    2.4451    0.0000 H   0  0  0  0  0  0  0  0  0  0  0  0
   -4.9027   -3.1301    0.0000 H   0  0  0  0  0  0  0  0  0  0  0  0
   -5.6539    2.0114    0.0000 H   0  0  0  0  0  0  0  0  0  0  0  0
    4.1403   -3.9751    0.0000 H   0  0  0  0  0  0  0  0  0  0  0  0
    7.4586    0.0235    0.0000 H   0  0  0  0  0  0  0  0  0  0  0  0
    6.9537   -2.9337    0.0000 H   0  0  0  0  0  0  0  0  0  0  0  0
  1 12  1  0
  1 14  1  0
  2  8  1  0
  3  8  2  0
  4  9  1  0
  5  9  2  0
  6 10  1  0
  6 12  1  0
  6 13  1  0
  7 12  2  0
  7 18  1  0
  8 17  1  0
  9 21  1  0
 10 11  1  0
 10 26  1  0
 10 27  1  0
 11 15  2  0
 11 16  1  0
 13 18  2  0
 13 28  1  0
 14 17  2  0
 14 19  1  0
 15 23  1  0
 15 29  1  0
 16 24  2  0
 16 30  1  0
 17 20  1  0
 18 31  1  0
 19 22  2  0
 19 32  1  0
 20 21  2  0
 20 33  1  0
 21 22  1  0
 22 34  1  0
 23 25  2  0
 23 35  1  0
 24 25  1  0
 24 36  1  0
 25 37  1  0
M  CHG  4   2  -1   4  -1   8   1   9   1
V    2 [#8&-&h0]
V    4 [#8&-&h0]
V    8 [#7&+&h0]
V    9 [#7&+&h0]
M  STY  8   1 DAT   2 DAT   3 DAT   4 DAT   5 DAT   6 DAT   7 DAT   8 DAT
M  STY  8   9 DAT  10 DAT  11 DAT  12 DAT  13 DAT  14 DAT  15 DAT  16 DAT
M  STY  8  17 DAT  18 DAT  19 DAT  20 DAT  21 DAT  22 DAT  23 DAT  24 DAT
M  STY  8  25 DAT  26 DAT  27 DAT  28 DAT  29 DAT  30 DAT  31 DAT  32 DAT
M  STY  5  33 DAT  34 DAT  35 DAT  36 DAT  37 DAT
M  SAL   1  1   1
M  SED   1 [#16&h0]
M  SAL   2  1   2
M  SED   2 [#8&-&h0]
M  SAL   3  1   3
M  SED   3 [#8&h0]
M  SAL   4  1   4
M  SED   4 [#8&-&h0]
M  SAL   5  1   5
M  SED   5 [#8&h0]
M  SAL   6  1   6
M  SED   6 [#7&h0]
M  SAL   7  1   7
M  SED   7 [#7&h0]
M  SAL   8  1   8
M  SED   8 [#7&+&h0]
M  SAL   9  1   9
M  SED   9 [#7&+&h0]
M  SAL  10  1  10
M  SED  10 [#6&h0]
M  SAL  11  1  11
M  SED  11 [#6&h0]
M  SAL  12  1  12
M  SED  12 [#6&h0]
M  SAL  13  1  13
M  SED  13 [#6&h0]
M  SAL  14  1  14
M  SED  14 [#6&h0]
M  SAL  15  1  15
M  SED  15 [#6&h0]
M  SAL  16  1  16
M  SED  16 [#6&h0]
M  SAL  17  1  17
M  SED  17 [#6&h0]
M  SAL  18  1  18
M  SED  18 [#6&h0]
M  SAL  19  1  19
M  SED  19 [#6&h0]
M  SAL  20  1  20
M  SED  20 [#6&h0]
M  SAL  21  1  21
M  SED  21 [#6&h0]
M  SAL  22  1  22
M  SED  22 [#6&h0]
M  SAL  23  1  23
M  SED  23 [#6&h0]
M  SAL  24  1  24
M  SED  24 [#6&h0]
M  SAL  25  1  25
M  SED  25 [#6&h0]
M  SAL  26  1  26
M  SED  26 [#1&h0]
M  SAL  27  1  27
M  SED  27 [#1&h0]
M  SAL  28  1  28
M  SED  28 [#1&h0]
M  SAL  29  1  29
M  SED  29 [#1&h0]
M  SAL  30  1  30
M  SED  30 [#1&h0]
M  SAL  31  1  31
M  SED  31 [#1&h0]
M  SAL  32  1  32
M  SED  32 [#1&h0]
M  SAL  33  1  33
M  SED  33 [#1&h0]
M  SAL  34  1  34
M  SED  34 [#1&h0]
M  SAL  35  1  35
M  SED  35 [#1&h0]
M  SAL  36  1  36
M  SED  36 [#1&h0]
M  SAL  37  1  37
M  SED  37 [#1&h0]
M  END
>  <Activity>  (77) 
0.01

>  <Mapped(file=2032.csv.activities,property=Cached(PUBCHEM_COMPOUND_CID))>  (77) 
100

>  <MatchIndices>  (77) 
104 

>  <PUBCHEM_ATOM_DEF_STEREO_COUNT>  (77) 
0

>  <PUBCHEM_ATOM_UDEF_STEREO_COUNT>  (77) 
0

>  <PUBCHEM_BONDANNOTATIONS>  (77) 
11  15  8
11  16  8
13  18  8
14  17  8
14  19  8
15  23  8
16  24  8
17  20  8
19  22  8
20  21  8
21  22  8
23  25  8
24  25  8
6  12  8
6  13  8
7  12  8
7  18  8

>  <PUBCHEM_BOND_DEF_STEREO_COUNT>  (77) 
0

>  <PUBCHEM_BOND_UDEF_STEREO_COUNT>  (77) 
0

>  <PUBCHEM_CACTVS_COMPLEXITY>  (77) 
478

>  <PUBCHEM_CACTVS_HBOND_ACCEPTOR>  (77) 
5

>  <PUBCHEM_CACTVS_HBOND_DONOR>  (77) 
0

>  <PUBCHEM_CACTVS_ROTATABLE_BOND>  (77) 
4

>  <PUBCHEM_CACTVS_SUBSKEYS>  (77) 
AAADccB7uABAAAAAAAAAAAAAAAAAAWAAAAAwYAAAAAAAAAAB0AAAHAQEAAAADAjBWgQ90ZccUAihAjRnZwCC0C1xGrApyBwYdIqIaCKg2dGUIAhogAKIyCcQgAAOAAQAAAQAAQAACAAACAACAAAAAAAAAA==

>  <PUBCHEM_CACTVS_TAUTO_COUNT>  (77) 
1

>  <PUBCHEM_CACTVS_TPSA>  (77) 
135

>  <PUBCHEM_COMPONENT_COUNT>  (77) 
1

>  <PUBCHEM_COMPOUND_CANONICALIZED>  (77) 
1

>  <PUBCHEM_COMPOUND_CID>  (77) 
2850095

>  <PUBCHEM_COORDINATE_TYPE>  (77) 
1
5
255

>  <PUBCHEM_EXACT_MASS>  (77) 
356.057926

>  <PUBCHEM_HEAVY_ATOM_COUNT>  (77) 
25

>  <PUBCHEM_ISOTOPIC_ATOM_COUNT>  (77) 
0

>  <PUBCHEM_IUPAC_CAS_NAME>  (77) 
2-[(2,4-dinitrophenyl)thio]-1-(phenylmethyl)imidazole

>  <PUBCHEM_IUPAC_INCHI>  (77) 
InChI=1S/C16H12N4O4S/c21-19(22)13-6-7-15(14(10-13)20(23)24)25-16-17-8-9-18(16)11-12-4-2-1-3-5-12/h1-10H,11H2

>  <PUBCHEM_IUPAC_INCHIKEY>  (77) 
CYDYZLAMHRNBAH-UHFFFAOYSA-N

>  <PUBCHEM_IUPAC_NAME>  (77) 
1-benzyl-2-(2,4-dinitrophenyl)sulfanylimidazole

>  <PUBCHEM_IUPAC_OPENEYE_NAME>  (77) 
1-benzyl-2-(2,4-dinitrophenyl)sulfanyl-imidazole

>  <PUBCHEM_IUPAC_SYSTEMATIC_NAME>  (77) 
2-(2,4-dinitrophenyl)sulfanyl-1-(phenylmethyl)imidazole

>  <PUBCHEM_IUPAC_TRADITIONAL_NAME>  (77) 
1-benzyl-2-[(2,4-dinitrophenyl)thio]imidazole

>  <PUBCHEM_MOLECULAR_FORMULA>  (77) 
C16H12N4O4S

>  <PUBCHEM_MOLECULAR_WEIGHT>  (77) 
356.35588

>  <PUBCHEM_MONOISOTOPIC_WEIGHT>  (77) 
356.057926

>  <PUBCHEM_OPENEYE_CAN_SMILES>  (77) 
C1=CC=C(C=C1)CN2C=CN=C2SC3=C(C=C(C=C3)[N+](=O)[O-])[N+](=O)[O-]

>  <PUBCHEM_OPENEYE_ISO_SMILES>  (77) 
C1=CC=C(C=C1)CN2C=CN=C2SC3=C(C=C(C=C3)[N+](=O)[O-])[N+](=O)[O-]

>  <PUBCHEM_TOTAL_CHARGE>  (77) 
0

>  <PUBCHEM_XLOGP3_AA>  (77) 
3.7

$$$$
Largest isolated from Written by BCL::WriteToMDL,776996
     RDKit          2D

 45 47  0 45  0  0  0  0  0  0999 V2000
    4.8835   -1.2437    0.0000 O   0  0  0  0  0  0  0  0  0  0  0  0
   -8.2749    0.9024    0.0000 O   0  0  0  0  0  0  0  0  0  0  0  0
   -1.5489   -2.4158    0.0000 N   0  0  0  0  0  0  0  0  0  0  0  0
   -0.3015   -1.5827    0.0000 C   0  0  0  0  0  0  0  0  0  0  0  0
   -2.8941   -1.7522    0.0000 C   0  0  0  0  0  0  0  0  0  0  0  0
    0.9458   -0.7496    0.0000 C   0  0  0  0  0  0  0  0  0  0  0  0
   -4.2393   -1.0885    0.0000 C   0  0  0  0  0  0  0  0  0  0  0  0
    2.2910   -1.4132    0.0000 C   0  0  0  0  0  0  0  0  0  0  0  0
    0.8480    0.7473    0.0000 C   0  0  0  0  0  0  0  0  0  0  0  0
    3.5383   -0.5801    0.0000 C   0  0  0  0  0  0  0  0  0  0  0  0
   -4.3371    0.4083    0.0000 C   0  0  0  0  0  0  0  0  0  0  0  0
   -5.4866   -1.9217    0.0000 C   0  0  0  0  0  0  0  0  0  0  0  0
    2.0953    1.5804    0.0000 C   0  0  0  0  0  0  0  0  0  0  0  0
    3.4405    0.9167    0.0000 C   0  0  0  0  0  0  0  0  0  0  0  0
   -5.6823    1.0719    0.0000 C   0  0  0  0  0  0  0  0  0  0  0  0
   -6.8318   -1.2580    0.0000 C   0  0  0  0  0  0  0  0  0  0  0  0
   -6.9297    0.2388    0.0000 C   0  0  0  0  0  0  0  0  0  0  0  0
    6.1309   -0.4106    0.0000 C   0  0  0  0  0  0  0  0  0  0  0  0
    7.4761   -1.0742    0.0000 C   0  0  0  0  0  0  0  0  0  0  0  0
    6.0330    1.0862    0.0000 C   0  0  0  0  0  0  0  0  0  0  0  0
    8.7234   -0.2411    0.0000 C   0  0  0  0  0  0  0  0  0  0  0  0
    7.2804    1.9194    0.0000 C   0  0  0  0  0  0  0  0  0  0  0  0
    8.6256    1.2557    0.0000 C   0  0  0  0  0  0  0  0  0  0  0  0
   -8.3727    2.3993    0.0000 C   0  0  0  0  0  0  0  0  0  0  0  0
    0.5316   -2.8300    0.0000 H   0  0  0  0  0  0  0  0  0  0  0  0
   -1.1347   -0.3354    0.0000 H   0  0  0  0  0  0  0  0  0  0  0  0
   -3.5577   -3.0974    0.0000 H   0  0  0  0  0  0  0  0  0  0  0  0
   -2.2304   -0.4070    0.0000 H   0  0  0  0  0  0  0  0  0  0  0  0
   -1.4510   -3.9127    0.0000 H   0  0  0  0  0  0  0  0  0  0  0  0
    2.3889   -2.9100    0.0000 H   0  0  0  0  0  0  0  0  0  0  0  0
   -0.4972    1.4109    0.0000 H   0  0  0  0  0  0  0  0  0  0  0  0
   -3.0898    1.2414    0.0000 H   0  0  0  0  0  0  0  0  0  0  0  0
   -5.3888   -3.4185    0.0000 H   0  0  0  0  0  0  0  0  0  0  0  0
    1.9974    3.0772    0.0000 H   0  0  0  0  0  0  0  0  0  0  0  0
    4.1861    1.5590    0.0000 H   0  0  0  0  0  0  0  0  0  0  0  0
   -5.7802    2.5687    0.0000 H   0  0  0  0  0  0  0  0  0  0  0  0
   -8.0792   -2.0912    0.0000 H   0  0  0  0  0  0  0  0  0  0  0  0
    7.5739   -2.5710    0.0000 H   0  0  0  0  0  0  0  0  0  0  0  0
    5.2101    1.6260    0.0000 H   0  0  0  0  0  0  0  0  0  0  0  0
   10.0686   -0.9048    0.0000 H   0  0  0  0  0  0  0  0  0  0  0  0
    7.1825    3.4162    0.0000 H   0  0  0  0  0  0  0  0  0  0  0  0
    9.8729    2.0889    0.0000 H   0  0  0  0  0  0  0  0  0  0  0  0
   -9.8695    2.3014    0.0000 H   0  0  0  0  0  0  0  0  0  0  0  0
   -6.8759    2.4971    0.0000 H   0  0  0  0  0  0  0  0  0  0  0  0
   -8.4706    3.8961    0.0000 H   0  0  0  0  0  0  0  0  0  0  0  0
  1 10  1  0
  1 18  1  0
  2 17  1  0
  2 24  1  0
  3  4  1  0
  3  5  1  0
  3 29  1  0
  4  6  1  0
  4 25  1  0
  4 26  1  0
  5  7  1  0
  5 27  1  0
  5 28  1  0
  6  8  2  0
  6  9  1  0
  7 11  2  0
  7 12  1  0
  8 10  1  0
  8 30  1  0
  9 13  2  0
  9 31  1  0
 10 14  2  0
 11 15  1  0
 11 32  1  0
 12 16  2  0
 12 33  1  0
 13 14  1  0
 13 34  1  0
 14 35  1  0
 15 17  2  0
 15 36  1  0
 16 17  1  0
 16 37  1  0
 18 19  2  0
 18 20  1  0
 19 21  1  0
 19 38  1  0
 20 22  2  0
 20 39  1  0
 21 23  2  0
 21 40  1  0
 22 23  1  0
 22 41  1  0
 23 42  1  0
 24 43  1  0
 24 44  1  0
 24 45  1  0
M  STY  8   1 DAT   2 DAT   3 DAT   4 DAT   5 DAT   6 DAT   7 DAT   8 DAT
M  STY  8   9 DAT  10 DAT  11 DAT  12 DAT  13 DAT  14 DAT  15 DAT  16 DAT
M  STY  8  17 DAT  18 DAT  19 DAT  20 DAT  21 DAT  22 DAT  23 DAT  24 DAT
M  STY  8  25 DAT  26 DAT  27 DAT  28 DAT  29 DAT  30 DAT  31 DAT  32 DAT
M  STY  8  33 DAT  34 DAT  35 DAT  36 DAT  37 DAT  38 DAT  39 DAT  40 DAT
M  STY  5  41 DAT  42 DAT  43 DAT  44 DAT  45 DAT
M  SAL   1  1   1
M  SED   1 [#8&h0]
M  SAL   2  1   2
M  SED   2 [#8&h0]
M  SAL   3  1   3
M  SED   3 [#7&h0]
M  SAL   4  1   4
M  SED   4 [#6&h0]
M  SAL   5  1   5
M  SED   5 [#6&h0]
M  SAL   6  1   6
M  SED   6 [#6&h0]
M  SAL   7  1   7
M  SED   7 [#6&h0]
M  SAL   8  1   8
M  SED   8 [#6&h0]
M  SAL   9  1   9
M  SED   9 [#6&h0]
M  SAL  10  1  10
M  SED  10 [#6&h0]
M  SAL  11  1  11
M  SED  11 [#6&h0]
M  SAL  12  1  12
M  SED  12 [#6&h0]
M  SAL  13  1  13
M  SED  13 [#6&h0]
M  SAL  14  1  14
M  SED  14 [#6&h0]
M  SAL  15  1  15
M  SED  15 [#6&h0]
M  SAL  16  1  16
M  SED  16 [#6&h0]
M  SAL  17  1  17
M  SED  17 [#6&h0]
M  SAL  18  1  18
M  SED  18 [#6&h0]
M  SAL  19  1  19
M  SED  19 [#6&h0]
M  SAL  20  1  20
M  SED  20 [#6&h0]
M  SAL  21  1  21
M  SED  21 [#6&h0]
M  SAL  22  1  22
M  SED  22 [#6&h0]
M  SAL  23  1  23
M  SED  23 [#6&h0]
M  SAL  24  1  24
M  SED  24 [#6&h0]
M  SAL  25  1  25
M  SED  25 [#1&h0]
M  SAL  26  1  26
M  SED  26 [#1&h0]
M  SAL  27  1  27
M  SED  27 [#1&h0]
M  SAL  28  1  28
M  SED  28 [#1&h0]
M  SAL  29  1  29
M  SED  29 [#1&h0]
M  SAL  30  1  30
M  SED  30 [#1&h0]
M  SAL  31  1  31
M  SED  31 [#1&h0]
M  SAL  32  1  32
M  SED  32 [#1&h0]
M  SAL  33  1  33
M  SED  33 [#1&h0]
M  SAL  34  1  34
M  SED  34 [#1&h0]
M  SAL  35  1  35
M  SED  35 [#1&h0]
M  SAL  36  1  36
M  SED  36 [#1&h0]
M  SAL  37  1  37
M  SED  37 [#1&h0]
M  SAL  38  1  38
M  SED  38 [#1&h0]
M  SAL  39  1  39
M  SED  39 [#1&h0]
M  SAL  40  1  40
M  SED  40 [#1&h0]
M  SAL  41  1  41
M  SED  41 [#1&h0]
M  SAL  42  1  42
M  SED  42 [#1&h0]
M  SAL  43  1  43
M  SED  43 [#1&h0]
M  SAL  44  1  44
M  SED  44 [#1&h0]
M  SAL  45  1  45
M  SED  45 [#1&h0]
M  END
>  <Activity>  (78) 
0.01

>  <Mapped(file=2032.csv.activities,property=Cached(PUBCHEM_COMPOUND_CID))>  (78) 
100

>  <MatchIndices>  (78) 
1 

>  <PUBCHEM_ATOM_DEF_STEREO_COUNT>  (78) 
0

>  <PUBCHEM_ATOM_UDEF_STEREO_COUNT>  (78) 
0

>  <PUBCHEM_BONDANNOTATIONS>  (78) 
10  14  8
11  15  8
12  16  8
13  14  8
15  17  8
16  17  8
18  19  8
18  20  8
19  21  8
20  22  8
21  23  8
22  23  8
6  8  8
6  9  8
7  11  8
7  12  8
8  10  8
9  13  8

>  <PUBCHEM_BOND_DEF_STEREO_COUNT>  (78) 
0

>  <PUBCHEM_BOND_UDEF_STEREO_COUNT>  (78) 
0

>  <PUBCHEM_CACTVS_COMPLEXITY>  (78) 
335

>  <PUBCHEM_CACTVS_HBOND_ACCEPTOR>  (78) 
3

>  <PUBCHEM_CACTVS_HBOND_DONOR>  (78) 
1

>  <PUBCHEM_CACTVS_ROTATABLE_BOND>  (78) 
7

>  <PUBCHEM_CACTVS_SUBSKEYS>  (78) 
AAADceB6MAAAAAAAAAAAAAAAAAAAAAAAAAAwYMAAAAAAAAABUAAAHgAQAAAADATBmAYyBoLABACAAiBCAACCCAAgIAAIiIAODIgMJiKEsRuGOCjkwBGIqAew0BIOIAABAAAAAABAAAIAAAAAAAAAAAAAAA==

>  <PUBCHEM_CACTVS_TAUTO_COUNT>  (78) 
1

>  <PUBCHEM_CACTVS_TPSA>  (78) 
30.5

>  <PUBCHEM_COMPONENT_COUNT>  (78) 
1

>  <PUBCHEM_COMPOUND_CANONICALIZED>  (78) 
1

>  <PUBCHEM_COMPOUND_CID>  (78) 
776996

>  <PUBCHEM_COORDINATE_TYPE>  (78) 
1
5
255

>  <PUBCHEM_EXACT_MASS>  (78) 
319.157229

>  <PUBCHEM_HEAVY_ATOM_COUNT>  (78) 
24

>  <PUBCHEM_ISOTOPIC_ATOM_COUNT>  (78) 
0

>  <PUBCHEM_IUPAC_CAS_NAME>  (78) 
1-(4-methoxyphenyl)-N-[(3-phenoxyphenyl)methyl]methanamine

>  <PUBCHEM_IUPAC_INCHI>  (78) 
InChI=1S/C21H21NO2/c1-23-19-12-10-17(11-13-19)15-22-16-18-6-5-9-21(14-18)24-20-7-3-2-4-8-20/h2-14,22H,15-16H2,1H3

>  <PUBCHEM_IUPAC_INCHIKEY>  (78) 
IRZTVIUZJPYVAW-UHFFFAOYSA-N

>  <PUBCHEM_IUPAC_NAME>  (78) 
1-(4-methoxyphenyl)-N-[(3-phenoxyphenyl)methyl]methanamine

>  <PUBCHEM_IUPAC_OPENEYE_NAME>  (78) 
1-(4-methoxyphenyl)-N-[(3-phenoxyphenyl)methyl]methanamine

>  <PUBCHEM_IUPAC_SYSTEMATIC_NAME>  (78) 
1-(4-methoxyphenyl)-N-[(3-phenoxyphenyl)methyl]methanamine

>  <PUBCHEM_IUPAC_TRADITIONAL_NAME>  (78) 
p-anisyl-(3-phenoxybenzyl)amine

>  <PUBCHEM_MOLECULAR_FORMULA>  (78) 
C21H21NO2

>  <PUBCHEM_MOLECULAR_WEIGHT>  (78) 
319.39694

>  <PUBCHEM_MONOISOTOPIC_WEIGHT>  (78) 
319.157229

>  <PUBCHEM_OPENEYE_CAN_SMILES>  (78) 
COC1=CC=C(C=C1)CNCC2=CC(=CC=C2)OC3=CC=CC=C3

>  <PUBCHEM_OPENEYE_ISO_SMILES>  (78) 
COC1=CC=C(C=C1)CNCC2=CC(=CC=C2)OC3=CC=CC=C3

>  <PUBCHEM_TOTAL_CHARGE>  (78) 
0

>  <PUBCHEM_XLOGP3>  (78) 
4.2

$$$$
Largest isolated from Written by BCL::WriteToMDL,1225417
     RDKit          2D

 39 41  0 39  0  0  0  0  0  0999 V2000
   -7.9599    3.4418    0.0000 Cl  0  0  0  0  0  0  0  0  0  0  0  0
   -1.7641   -0.6323    0.0000 O   0  0  0  0  0  0  0  0  0  0  0  0
    1.6095   -2.8093    0.0000 O   0  0  0  0  0  0  0  0  0  0  0  0
   -5.7310    0.2642    0.0000 N   0  0  0  0  0  0  0  0  0  0  0  0
    1.3422   -0.2250    0.0000 N   0  0  0  0  0  0  0  0  0  0  0  0
   -7.1023   -0.3437    0.0000 N   0  0  0  0  0  0  0  0  0  0  0  0
   -4.4332   -0.4880    0.0000 C   0  0  0  0  0  0  0  0  0  0  0  0
   -3.1354   -1.2401    0.0000 C   0  0  0  0  0  0  0  0  0  0  0  0
    2.8342   -0.0707    0.0000 C   0  0  0  0  0  0  0  0  0  0  0  0
    3.4466    1.2986    0.0000 C   0  0  0  0  0  0  0  0  0  0  0  0
   -0.7622   -1.7486    0.0000 C   0  0  0  0  0  0  0  0  0  0  0  0
    5.8183    0.2380    0.0000 C   0  0  0  0  0  0  0  0  0  0  0  0
   -2.9811   -2.7322    0.0000 C   0  0  0  0  0  0  0  0  0  0  0  0
    4.9386    1.4530    0.0000 C   0  0  0  0  0  0  0  0  0  0  0  0
    3.7139   -1.2857    0.0000 C   0  0  0  0  0  0  0  0  0  0  0  0
   -1.5144   -3.0464    0.0000 C   0  0  0  0  0  0  0  0  0  0  0  0
    0.7298   -1.5943    0.0000 C   0  0  0  0  0  0  0  0  0  0  0  0
    5.2059   -1.1313    0.0000 C   0  0  0  0  0  0  0  0  0  0  0  0
    2.5669    2.5136    0.0000 C   0  0  0  0  0  0  0  0  0  0  0  0
   -5.8853    1.7562    0.0000 C   0  0  0  0  0  0  0  0  0  0  0  0
    7.3103    0.3923    0.0000 C   0  0  0  0  0  0  0  0  0  0  0  0
   -7.3520    2.0705    0.0000 C   0  0  0  0  0  0  0  0  0  0  0  0
   -8.1042    0.7727    0.0000 C   0  0  0  0  0  0  0  0  0  0  0  0
   -5.1854   -1.7858    0.0000 H   0  0  0  0  0  0  0  0  0  0  0  0
   -3.6811    0.8098    0.0000 H   0  0  0  0  0  0  0  0  0  0  0  0
   -4.0975   -3.7340    0.0000 H   0  0  0  0  0  0  0  0  0  0  0  0
    5.5510    2.8223    0.0000 H   0  0  0  0  0  0  0  0  0  0  0  0
    0.4625    0.9900    0.0000 H   0  0  0  0  0  0  0  0  0  0  0  0
   -0.9065   -4.4178    0.0000 H   0  0  0  0  0  0  0  0  0  0  0  0
    3.1015   -2.6550    0.0000 H   0  0  0  0  0  0  0  0  0  0  0  0
    6.0856   -2.3463    0.0000 H   0  0  0  0  0  0  0  0  0  0  0  0
    1.3519    1.6339    0.0000 H   0  0  0  0  0  0  0  0  0  0  0  0
    3.7819    3.3933    0.0000 H   0  0  0  0  0  0  0  0  0  0  0  0
    1.6872    3.7286    0.0000 H   0  0  0  0  0  0  0  0  0  0  0  0
   -4.7690    2.7581    0.0000 H   0  0  0  0  0  0  0  0  0  0  0  0
    7.1560    1.8843    0.0000 H   0  0  0  0  0  0  0  0  0  0  0  0
    7.4647   -1.0997    0.0000 H   0  0  0  0  0  0  0  0  0  0  0  0
    8.8024    0.5466    0.0000 H   0  0  0  0  0  0  0  0  0  0  0  0
   -9.5962    0.6184    0.0000 H   0  0  0  0  0  0  0  0  0  0  0  0
  1 22  1  0
  2  8  1  0
  2 11  1  0
  3 17  2  0
  4  6  1  0
  4  7  1  0
  4 20  1  0
  5  9  1  0
  5 17  1  0
  5 28  1  0
  6 23  2  0
  7  8  1  0
  7 24  1  0
  7 25  1  0
  8 13  2  0
  9 10  2  0
  9 15  1  0
 10 14  1  0
 10 19  1  0
 11 16  2  0
 11 17  1  0
 12 14  2  0
 12 18  1  0
 12 21  1  0
 13 16  1  0
 13 26  1  0
 14 27  1  0
 15 18  2  0
 15 30  1  0
 16 29  1  0
 18 31  1  0
 19 32  1  0
 19 33  1  0
 19 34  1  0
 20 22  2  0
 20 35  1  0
 21 36  1  0
 21 37  1  0
 21 38  1  0
 22 23  1  0
 23 39  1  0
M  STY  8   1 DAT   2 DAT   3 DAT   4 DAT   5 DAT   6 DAT   7 DAT   8 DAT
M  STY  8   9 DAT  10 DAT  11 DAT  12 DAT  13 DAT  14 DAT  15 DAT  16 DAT
M  STY  8  17 DAT  18 DAT  19 DAT  20 DAT  21 DAT  22 DAT  23 DAT  24 DAT
M  STY  8  25 DAT  26 DAT  27 DAT  28 DAT  29 DAT  30 DAT  31 DAT  32 DAT
M  STY  7  33 DAT  34 DAT  35 DAT  36 DAT  37 DAT  38 DAT  39 DAT
M  SAL   1  1   1
M  SED   1 [#17&h0]
M  SAL   2  1   2
M  SED   2 [#8&h0]
M  SAL   3  1   3
M  SED   3 [#8&h0]
M  SAL   4  1   4
M  SED   4 [#7&h0]
M  SAL   5  1   5
M  SED   5 [#7&h0]
M  SAL   6  1   6
M  SED   6 [#7&h0]
M  SAL   7  1   7
M  SED   7 [#6&h0]
M  SAL   8  1   8
M  SED   8 [#6&h0]
M  SAL   9  1   9
M  SED   9 [#6&h0]
M  SAL  10  1  10
M  SED  10 [#6&h0]
M  SAL  11  1  11
M  SED  11 [#6&h0]
M  SAL  12  1  12
M  SED  12 [#6&h0]
M  SAL  13  1  13
M  SED  13 [#6&h0]
M  SAL  14  1  14
M  SED  14 [#6&h0]
M  SAL  15  1  15
M  SED  15 [#6&h0]
M  SAL  16  1  16
M  SED  16 [#6&h0]
M  SAL  17  1  17
M  SED  17 [#6&h0]
M  SAL  18  1  18
M  SED  18 [#6&h0]
M  SAL  19  1  19
M  SED  19 [#6&h0]
M  SAL  20  1  20
M  SED  20 [#6&h0]
M  SAL  21  1  21
M  SED  21 [#6&h0]
M  SAL  22  1  22
M  SED  22 [#6&h0]
M  SAL  23  1  23
M  SED  23 [#6&h0]
M  SAL  24  1  24
M  SED  24 [#1&h0]
M  SAL  25  1  25
M  SED  25 [#1&h0]
M  SAL  26  1  26
M  SED  26 [#1&h0]
M  SAL  27  1  27
M  SED  27 [#1&h0]
M  SAL  28  1  28
M  SED  28 [#1&h0]
M  SAL  29  1  29
M  SED  29 [#1&h0]
M  SAL  30  1  30
M  SED  30 [#1&h0]
M  SAL  31  1  31
M  SED  31 [#1&h0]
M  SAL  32  1  32
M  SED  32 [#1&h0]
M  SAL  33  1  33
M  SED  33 [#1&h0]
M  SAL  34  1  34
M  SED  34 [#1&h0]
M  SAL  35  1  35
M  SED  35 [#1&h0]
M  SAL  36  1  36
M  SED  36 [#1&h0]
M  SAL  37  1  37
M  SED  37 [#1&h0]
M  SAL  38  1  38
M  SED  38 [#1&h0]
M  SAL  39  1  39
M  SED  39 [#1&h0]
M  END
>  <Activity>  (79) 
0.01

>  <Mapped(file=2032.csv.activities,property=Cached(PUBCHEM_COMPOUND_CID))>  (79) 
100

>  <MatchIndices>  (79) 
55 

>  <PUBCHEM_ATOM_DEF_STEREO_COUNT>  (79) 
0

>  <PUBCHEM_ATOM_UDEF_STEREO_COUNT>  (79) 
0

>  <PUBCHEM_BONDANNOTATIONS>  (79) 
10  14  8
11  16  8
12  14  8
12  18  8
13  16  8
15  18  8
2  11  8
2  8  8
20  22  8
22  23  8
4  20  8
4  6  8
6  23  8
8  13  8
9  10  8
9  15  8

>  <PUBCHEM_BOND_DEF_STEREO_COUNT>  (79) 
0

>  <PUBCHEM_BOND_UDEF_STEREO_COUNT>  (79) 
0

>  <PUBCHEM_CACTVS_COMPLEXITY>  (79) 
423

>  <PUBCHEM_CACTVS_HBOND_ACCEPTOR>  (79) 
3

>  <PUBCHEM_CACTVS_HBOND_DONOR>  (79) 
1

>  <PUBCHEM_CACTVS_ROTATABLE_BOND>  (79) 
4

>  <PUBCHEM_CACTVS_SUBSKEYS>  (79) 
AAADceB7MAAEAAAAAAAAAAAAAAAAAWJAAAAwAAAAAAAAAAAB8AAAHgIYAAAADA7BmiQ+xJLIBECqArV3VAKSDAA1owAY2CHubNgOJrLE9f/HvSjk3BHY6YeYn0JuCAACAAACAAAQAAQAAAQAAAAAAAAAAA==

>  <PUBCHEM_CACTVS_TAUTO_COUNT>  (79) 
2

>  <PUBCHEM_CACTVS_TPSA>  (79) 
60.1

>  <PUBCHEM_COMPONENT_COUNT>  (79) 
1

>  <PUBCHEM_COMPOUND_CANONICALIZED>  (79) 
1

>  <PUBCHEM_COMPOUND_CID>  (79) 
1225417

>  <PUBCHEM_COORDINATE_TYPE>  (79) 
1
5
255

>  <PUBCHEM_EXACT_MASS>  (79) 
329.093104

>  <PUBCHEM_HEAVY_ATOM_COUNT>  (79) 
23

>  <PUBCHEM_ISOTOPIC_ATOM_COUNT>  (79) 
0

>  <PUBCHEM_IUPAC_CAS_NAME>  (79) 
5-[(4-chloro-1-pyrazolyl)methyl]-N-(2,4-dimethylphenyl)-2-furancarboxamide

>  <PUBCHEM_IUPAC_INCHI>  (79) 
InChI=1S/C17H16ClN3O2/c1-11-3-5-15(12(2)7-11)20-17(22)16-6-4-14(23-16)10-21-9-13(18)8-19-21/h3-9H,10H2,1-2H3,(H,20,22)

>  <PUBCHEM_IUPAC_INCHIKEY>  (79) 
JVFJDPOIFJJDQP-UHFFFAOYSA-N

>  <PUBCHEM_IUPAC_NAME>  (79) 
5-[(4-chloropyrazol-1-yl)methyl]-N-(2,4-dimethylphenyl)furan-2-carboxamide

>  <PUBCHEM_IUPAC_OPENEYE_NAME>  (79) 
5-[(4-chloropyrazol-1-yl)methyl]-N-(2,4-dimethylphenyl)furan-2-carboxamide

>  <PUBCHEM_IUPAC_SYSTEMATIC_NAME>  (79) 
5-[(4-chloranylpyrazol-1-yl)methyl]-N-(2,4-dimethylphenyl)furan-2-carboxamide

>  <PUBCHEM_IUPAC_TRADITIONAL_NAME>  (79) 
5-[(4-chloropyrazol-1-yl)methyl]-N-(2,4-dimethylphenyl)-2-furamide

>  <PUBCHEM_MOLECULAR_FORMULA>  (79) 
C17H16ClN3O2

>  <PUBCHEM_MOLECULAR_WEIGHT>  (79) 
329.78084

>  <PUBCHEM_MONOISOTOPIC_WEIGHT>  (79) 
329.093104

>  <PUBCHEM_OPENEYE_CAN_SMILES>  (79) 
CC1=CC(=C(C=C1)NC(=O)C2=CC=C(O2)CN3C=C(C=N3)Cl)C

>  <PUBCHEM_OPENEYE_ISO_SMILES>  (79) 
CC1=CC(=C(C=C1)NC(=O)C2=CC=C(O2)CN3C=C(C=N3)Cl)C

>  <PUBCHEM_TOTAL_CHARGE>  (79) 
0

>  <PUBCHEM_XLOGP3_AA>  (79) 
3.5

$$$$
Largest isolated from Written by BCL::WriteToMDL,6911430
     RDKit          2D

 41 43  0 41  0  0  0  0  0  0999 V2000
   -3.9396   -1.2483    0.0000 O   0  0  0  0  0  0  0  0  0  0  0  0
    7.9510   -2.8648    0.0000 O   0  0  0  0  0  0  0  0  0  0  0  0
    3.2738    1.7040    0.0000 O   0  0  0  0  0  0  0  0  0  0  0  0
    2.9239   -0.8704    0.0000 N   0  0  0  0  0  0  0  0  0  0  0  0
    1.4375   -0.6683    0.0000 N   0  0  0  0  0  0  0  0  0  0  0  0
   -3.0215   -0.0622    0.0000 C   0  0  0  0  0  0  0  0  0  0  0  0
   -0.6170    0.9220    0.0000 C   0  0  0  0  0  0  0  0  0  0  0  0
   -1.5351   -0.2642    0.0000 C   0  0  0  0  0  0  0  0  0  0  0  0
   -3.5896    1.3261    0.0000 C   0  0  0  0  0  0  0  0  0  0  0  0
   -1.1852    2.3102    0.0000 C   0  0  0  0  0  0  0  0  0  0  0  0
    5.3283    0.1137    0.0000 C   0  0  0  0  0  0  0  0  0  0  0  0
   -5.4259   -1.0463    0.0000 C   0  0  0  0  0  0  0  0  0  0  0  0
   -2.6715    2.5122    0.0000 C   0  0  0  0  0  0  0  0  0  0  0  0
    0.8693    0.7199    0.0000 C   0  0  0  0  0  0  0  0  0  0  0  0
    5.8965   -1.2745    0.0000 C   0  0  0  0  0  0  0  0  0  0  0  0
    6.2465    1.2999    0.0000 C   0  0  0  0  0  0  0  0  0  0  0  0
   -6.3441   -2.2325    0.0000 C   0  0  0  0  0  0  0  0  0  0  0  0
   -5.9941    0.3419    0.0000 C   0  0  0  0  0  0  0  0  0  0  0  0
    3.8420    0.3158    0.0000 C   0  0  0  0  0  0  0  0  0  0  0  0
    7.3828   -1.4765    0.0000 C   0  0  0  0  0  0  0  0  0  0  0  0
    7.7328    1.0979    0.0000 C   0  0  0  0  0  0  0  0  0  0  0  0
    8.3010   -0.2904    0.0000 C   0  0  0  0  0  0  0  0  0  0  0  0
   -7.8304   -2.0304    0.0000 C   0  0  0  0  0  0  0  0  0  0  0  0
   -7.4805    0.5440    0.0000 C   0  0  0  0  0  0  0  0  0  0  0  0
   -8.3986   -0.6422    0.0000 C   0  0  0  0  0  0  0  0  0  0  0  0
   -0.9670   -1.6524    0.0000 H   0  0  0  0  0  0  0  0  0  0  0  0
   -4.5414    1.5765    0.0000 H   0  0  0  0  0  0  0  0  0  0  0  0
   -0.2670    3.4964    0.0000 H   0  0  0  0  0  0  0  0  0  0  0  0
   -3.2397    3.9005    0.0000 H   0  0  0  0  0  0  0  0  0  0  0  0
    1.7875    1.9061    0.0000 H   0  0  0  0  0  0  0  0  0  0  0  0
    4.9784   -2.4607    0.0000 H   0  0  0  0  0  0  0  0  0  0  0  0
    5.6783    2.6881    0.0000 H   0  0  0  0  0  0  0  0  0  0  0  0
   -5.7759   -3.6207    0.0000 H   0  0  0  0  0  0  0  0  0  0  0  0
   -5.4911    1.1878    0.0000 H   0  0  0  0  0  0  0  0  0  0  0  0
    8.6510    2.2840    0.0000 H   0  0  0  0  0  0  0  0  0  0  0  0
    9.7873   -0.4924    0.0000 H   0  0  0  0  0  0  0  0  0  0  0  0
   -8.7486   -3.2166    0.0000 H   0  0  0  0  0  0  0  0  0  0  0  0
   -8.0486    1.9322    0.0000 H   0  0  0  0  0  0  0  0  0  0  0  0
    3.4920   -2.2586    0.0000 H   0  0  0  0  0  0  0  0  0  0  0  0
   -9.8849   -0.4401    0.0000 H   0  0  0  0  0  0  0  0  0  0  0  0
    9.4374   -3.0668    0.0000 H   0  0  0  0  0  0  0  0  0  0  0  0
  1  6  1  0
  1 12  1  0
  2 20  1  0
  2 41  1  0
  3 19  2  0
  4  5  1  0
  4 19  1  0
  4 39  1  0
  5 14  2  0
  6  8  2  0
  6  9  1  0
  7  8  1  0
  7 10  2  0
  7 14  1  0
  8 26  1  0
  9 13  2  0
  9 27  1  0
 10 13  1  0
 10 28  1  0
 11 15  2  0
 11 16  1  0
 11 19  1  0
 12 17  2  0
 12 18  1  0
 13 29  1  0
 14 30  1  0
 15 20  1  0
 15 31  1  0
 16 21  2  0
 16 32  1  0
 17 23  1  0
 17 33  1  0
 18 24  2  0
 18 34  1  0
 20 22  2  0
 21 22  1  0
 21 35  1  0
 22 36  1  0
 23 25  2  0
 23 37  1  0
 24 25  1  0
 24 38  1  0
 25 40  1  0
M  STY  8   1 DAT   2 DAT   3 DAT   4 DAT   5 DAT   6 DAT   7 DAT   8 DAT
M  STY  8   9 DAT  10 DAT  11 DAT  12 DAT  13 DAT  14 DAT  15 DAT  16 DAT
M  STY  8  17 DAT  18 DAT  19 DAT  20 DAT  21 DAT  22 DAT  23 DAT  24 DAT
M  STY  8  25 DAT  26 DAT  27 DAT  28 DAT  29 DAT  30 DAT  31 DAT  32 DAT
M  STY  8  33 DAT  34 DAT  35 DAT  36 DAT  37 DAT  38 DAT  39 DAT  40 DAT
M  STY  1  41 DAT
M  SAL   1  1   1
M  SED   1 [#8&h0]
M  SAL   2  1   2
M  SED   2 [#8&h0]
M  SAL   3  1   3
M  SED   3 [#8&h0]
M  SAL   4  1   4
M  SED   4 [#7&h0]
M  SAL   5  1   5
M  SED   5 [#7&h0]
M  SAL   6  1   6
M  SED   6 [#6&h0]
M  SAL   7  1   7
M  SED   7 [#6&h0]
M  SAL   8  1   8
M  SED   8 [#6&h0]
M  SAL   9  1   9
M  SED   9 [#6&h0]
M  SAL  10  1  10
M  SED  10 [#6&h0]
M  SAL  11  1  11
M  SED  11 [#6&h0]
M  SAL  12  1  12
M  SED  12 [#6&h0]
M  SAL  13  1  13
M  SED  13 [#6&h0]
M  SAL  14  1  14
M  SED  14 [#6&h0]
M  SAL  15  1  15
M  SED  15 [#6&h0]
M  SAL  16  1  16
M  SED  16 [#6&h0]
M  SAL  17  1  17
M  SED  17 [#6&h0]
M  SAL  18  1  18
M  SED  18 [#6&h0]
M  SAL  19  1  19
M  SED  19 [#6&h0]
M  SAL  20  1  20
M  SED  20 [#6&h0]
M  SAL  21  1  21
M  SED  21 [#6&h0]
M  SAL  22  1  22
M  SED  22 [#6&h0]
M  SAL  23  1  23
M  SED  23 [#6&h0]
M  SAL  24  1  24
M  SED  24 [#6&h0]
M  SAL  25  1  25
M  SED  25 [#6&h0]
M  SAL  26  1  26
M  SED  26 [#1&h0]
M  SAL  27  1  27
M  SED  27 [#1&h0]
M  SAL  28  1  28
M  SED  28 [#1&h0]
M  SAL  29  1  29
M  SED  29 [#1&h0]
M  SAL  30  1  30
M  SED  30 [#1&h0]
M  SAL  31  1  31
M  SED  31 [#1&h0]
M  SAL  32  1  32
M  SED  32 [#1&h0]
M  SAL  33  1  33
M  SED  33 [#1&h0]
M  SAL  34  1  34
M  SED  34 [#1&h0]
M  SAL  35  1  35
M  SED  35 [#1&h0]
M  SAL  36  1  36
M  SED  36 [#1&h0]
M  SAL  37  1  37
M  SED  37 [#1&h0]
M  SAL  38  1  38
M  SED  38 [#1&h0]
M  SAL  39  1  39
M  SED  39 [#1&h0]
M  SAL  40  1  40
M  SED  40 [#1&h0]
M  SAL  41  1  41
M  SED  41 [#1&h0]
M  END
>  <Activity>  (80) 
0.01

>  <Mapped(file=2032.csv.activities,property=Cached(PUBCHEM_COMPOUND_CID))>  (80) 
100

>  <MatchIndices>  (80) 
80 

>  <PUBCHEM_ATOM_DEF_STEREO_COUNT>  (80) 
0

>  <PUBCHEM_ATOM_UDEF_STEREO_COUNT>  (80) 
0

>  <PUBCHEM_BONDANNOTATIONS>  (80) 
10  13  8
11  15  8
11  16  8
12  17  8
12  18  8
15  20  8
16  21  8
17  23  8
18  24  8
20  22  8
21  22  8
23  25  8
24  25  8
6  8  8
6  9  8
7  10  8
7  8  8
9  13  8

>  <PUBCHEM_BOND_DEF_STEREO_COUNT>  (80) 
1

>  <PUBCHEM_BOND_UDEF_STEREO_COUNT>  (80) 
0

>  <PUBCHEM_CACTVS_COMPLEXITY>  (80) 
448

>  <PUBCHEM_CACTVS_HBOND_ACCEPTOR>  (80) 
4

>  <PUBCHEM_CACTVS_HBOND_DONOR>  (80) 
2

>  <PUBCHEM_CACTVS_ROTATABLE_BOND>  (80) 
5

>  <PUBCHEM_CACTVS_SUBSKEYS>  (80) 
AAADceB7MAAAAAAAAAAAAAAAAAAAAAAAAAAwYMAAAAAAAAABUAAAHgAYCAAADATBmAQwBoBiBgCoAjFzEACSCAAkIAAaiAEmDNgMJrKGtRuCeSDkyBEIuYe6yBCOAAABAAAAAAAAAAIAAAAAAAAAAAAAAA==

>  <PUBCHEM_CACTVS_TAUTO_COUNT>  (80) 
6

>  <PUBCHEM_CACTVS_TPSA>  (80) 
70.9

>  <PUBCHEM_COMPONENT_COUNT>  (80) 
1

>  <PUBCHEM_COMPOUND_CANONICALIZED>  (80) 
1

>  <PUBCHEM_COMPOUND_CID>  (80) 
6911430

>  <PUBCHEM_COORDINATE_TYPE>  (80) 
1
5
255

>  <PUBCHEM_EXACT_MASS>  (80) 
332.116092

>  <PUBCHEM_HEAVY_ATOM_COUNT>  (80) 
25

>  <PUBCHEM_ISOTOPIC_ATOM_COUNT>  (80) 
0

>  <PUBCHEM_IUPAC_CAS_NAME>  (80) 
3-hydroxy-N-[(E)-(3-phenoxyphenyl)methylideneamino]benzamide

>  <PUBCHEM_IUPAC_INCHI>  (80) 
InChI=1S/C20H16N2O3/c23-17-8-5-7-16(13-17)20(24)22-21-14-15-6-4-11-19(12-15)25-18-9-2-1-3-10-18/h1-14,23H,(H,22,24)/b21-14+

>  <PUBCHEM_IUPAC_INCHIKEY>  (80) 
NZNXWFXUGFQKDQ-KGENOOAVSA-N

>  <PUBCHEM_IUPAC_NAME>  (80) 
3-hydroxy-N-[(E)-(3-phenoxyphenyl)methylideneamino]benzamide

>  <PUBCHEM_IUPAC_OPENEYE_NAME>  (80) 
3-hydroxy-N-[(E)-(3-phenoxyphenyl)methyleneamino]benzamide

>  <PUBCHEM_IUPAC_SYSTEMATIC_NAME>  (80) 
3-oxidanyl-N-[(E)-(3-phenoxyphenyl)methylideneamino]benzamide

>  <PUBCHEM_IUPAC_TRADITIONAL_NAME>  (80) 
3-hydroxy-N-[(E)-(3-phenoxybenzylidene)amino]benzamide

>  <PUBCHEM_MOLECULAR_FORMULA>  (80) 
C20H16N2O3

>  <PUBCHEM_MOLECULAR_WEIGHT>  (80) 
332.35264

>  <PUBCHEM_MONOISOTOPIC_WEIGHT>  (80) 
332.116092

>  <PUBCHEM_OPENEYE_CAN_SMILES>  (80) 
C1=CC=C(C=C1)OC2=CC=CC(=C2)C=NNC(=O)C3=CC(=CC=C3)O

>  <PUBCHEM_OPENEYE_ISO_SMILES>  (80) 
C1=CC=C(C=C1)OC2=CC=CC(=C2)/C=N/NC(=O)C3=CC(=CC=C3)O

>  <PUBCHEM_TOTAL_CHARGE>  (80) 
0

>  <PUBCHEM_XLOGP3>  (80) 
3.7

$$$$
Largest isolated from Written by BCL::WriteToMDL,24789258
     RDKit          2D

 61 64  0 61  0  0  0  0  0  0999 V2000
   -6.9809    1.8743    0.0000 F   0  0  0  0  0  0  0  0  0  0  0  0
   -4.0972    2.0664    0.0000 O   0  0  0  0  0  0  0  0  0  0  0  0
   -5.0337    0.4331    0.0000 O   0  0  0  0  0  0  0  0  0  0  0  0
   -0.4479   -0.5665    0.0000 N   0  0  0  0  0  0  0  0  0  0  0  0
   -1.9680   -2.6735    0.0000 N   0  0  0  0  0  0  0  0  0  0  0  0
    0.6167   -2.9365    0.0000 N   0  0  0  0  0  0  0  0  0  0  0  0
    5.9380   -1.9702    0.0000 N   0  0  0  0  0  0  0  0  0  0  0  0
   -3.1845   -1.7958    0.0000 C   0  0  0  0  0  0  0  0  0  0  0  0
   -1.6644    0.3111    0.0000 C   0  0  0  0  0  0  0  0  0  0  0  0
   -3.0326   -0.3035    0.0000 C   0  0  0  0  0  0  0  0  0  0  0  0
   -0.5998   -2.0588    0.0000 C   0  0  0  0  0  0  0  0  0  0  0  0
    0.9204    0.0481    0.0000 C   0  0  0  0  0  0  0  0  0  0  0  0
   -4.6277   -1.3872    0.0000 C   0  0  0  0  0  0  0  0  0  0  0  0
   -1.5125    1.8034    0.0000 C   0  0  0  0  0  0  0  0  0  0  0  0
    2.2887    0.6628    0.0000 C   0  0  0  0  0  0  0  0  0  0  0  0
    1.9850   -2.3218    0.0000 C   0  0  0  0  0  0  0  0  0  0  0  0
   -4.2491    0.5741    0.0000 C   0  0  0  0  0  0  0  0  0  0  0  0
   -4.9954    0.0671    0.0000 C   0  0  0  0  0  0  0  0  0  0  0  0
   -5.7033   -2.4327    0.0000 C   0  0  0  0  0  0  0  0  0  0  0  0
    3.3533   -1.7072    0.0000 C   0  0  0  0  0  0  0  0  0  0  0  0
    3.5051   -0.2149    0.0000 C   0  0  0  0  0  0  0  0  0  0  0  0
    2.4405    2.1550    0.0000 C   0  0  0  0  0  0  0  0  0  0  0  0
   -6.4387    0.4757    0.0000 C   0  0  0  0  0  0  0  0  0  0  0  0
   -7.1465   -2.0240    0.0000 C   0  0  0  0  0  0  0  0  0  0  0  0
    4.7216   -1.0925    0.0000 C   0  0  0  0  0  0  0  0  0  0  0  0
   -7.5142   -0.5698    0.0000 C   0  0  0  0  0  0  0  0  0  0  0  0
    4.8734    0.3998    0.0000 C   0  0  0  0  0  0  0  0  0  0  0  0
    3.8088    2.7697    0.0000 C   0  0  0  0  0  0  0  0  0  0  0  0
    5.0252    1.8920    0.0000 C   0  0  0  0  0  0  0  0  0  0  0  0
    4.8734    0.3998    0.0000 C   0  0  0  0  0  0  0  0  0  0  0  0
   -5.3137    2.9441    0.0000 C   0  0  0  0  0  0  0  0  0  0  0  0
    6.2417    1.0144    0.0000 C   0  0  0  0  0  0  0  0  0  0  0  0
    7.3063   -1.3555    0.0000 C   0  0  0  0  0  0  0  0  0  0  0  0
    7.4581    0.1367    0.0000 C   0  0  0  0  0  0  0  0  0  0  0  0
   -3.8376   -3.1462    0.0000 H   0  0  0  0  0  0  0  0  0  0  0  0
    1.3637   -1.3849    0.0000 H   0  0  0  0  0  0  0  0  0  0  0  0
    0.4771    1.4811    0.0000 H   0  0  0  0  0  0  0  0  0  0  0  0
    0.4648   -4.4288    0.0000 H   0  0  0  0  0  0  0  0  0  0  0  0
   -0.0128    1.8346    0.0000 H   0  0  0  0  0  0  0  0  0  0  0  0
   -3.0048    1.9552    0.0000 H   0  0  0  0  0  0  0  0  0  0  0  0
   -1.3607    3.2957    0.0000 H   0  0  0  0  0  0  0  0  0  0  0  0
    2.5996   -3.6901    0.0000 H   0  0  0  0  0  0  0  0  0  0  0  0
    1.2081   -1.0387    0.0000 H   0  0  0  0  0  0  0  0  0  0  0  0
   -4.2049    1.3418    0.0000 H   0  0  0  0  0  0  0  0  0  0  0  0
   -5.3356   -3.8870    0.0000 H   0  0  0  0  0  0  0  0  0  0  0  0
    2.4258   -0.5283    0.0000 H   0  0  0  0  0  0  0  0  0  0  0  0
    3.9679   -3.0755    0.0000 H   0  0  0  0  0  0  0  0  0  0  0  0
    3.7189   -1.6996    0.0000 H   0  0  0  0  0  0  0  0  0  0  0  0
    1.2241    3.0327    0.0000 H   0  0  0  0  0  0  0  0  0  0  0  0
   -8.2221   -3.0696    0.0000 H   0  0  0  0  0  0  0  0  0  0  0  0
   -8.9575   -0.1611    0.0000 H   0  0  0  0  0  0  0  0  0  0  0  0
    6.0898   -0.4779    0.0000 H   0  0  0  0  0  0  0  0  0  0  0  0
    3.9606    4.2620    0.0000 H   0  0  0  0  0  0  0  0  0  0  0  0
    6.3084    2.6689    0.0000 H   0  0  0  0  0  0  0  0  0  0  0  0
    3.6570    1.2774    0.0000 H   0  0  0  0  0  0  0  0  0  0  0  0
   -4.4360    4.1605    0.0000 H   0  0  0  0  0  0  0  0  0  0  0  0
   -6.3331    1.8437    0.0000 H   0  0  0  0  0  0  0  0  0  0  0  0
   -6.5301    3.8217    0.0000 H   0  0  0  0  0  0  0  0  0  0  0  0
    6.5743    2.4771    0.0000 H   0  0  0  0  0  0  0  0  0  0  0  0
    8.5227   -2.2332    0.0000 H   0  0  0  0  0  0  0  0  0  0  0  0
    8.8264    0.7514    0.0000 H   0  0  0  0  0  0  0  0  0  0  0  0
  1 23  1  0
  2 17  1  0
  2 31  1  0
  3 17  2  0
  4  9  1  0
  4 11  1  0
  4 12  1  0
  5  8  1  0
  5 11  2  0
  6 11  1  0
  6 16  1  0
  6 38  1  0
  7 25  2  0
  7 33  1  0
  8 10  1  0
  8 13  1  0
  8 35  1  6
  9 10  2  0
  9 14  1  0
 10 17  1  0
 12 15  1  0
 12 36  1  0
 12 37  1  0
 13 18  2  0
 13 19  1  0
 14 39  1  0
 14 40  1  0
 14 41  1  0
 15 21  2  0
 15 22  1  0
 16 20  1  0
 16 42  1  0
 16 43  1  0
 18 23  1  0
 18 44  1  0
 19 24  2  0
 19 45  1  0
 20 25  1  0
 20 46  1  0
 20 47  1  0
 21 27  1  0
 21 48  1  0
 22 28  2  0
 22 49  1  0
 23 26  2  0
 24 26  1  0
 24 50  1  0
 25 30  1  0
 26 51  1  0
 27 29  2  0
 27 52  1  0
 28 29  1  0
 28 53  1  0
 29 54  1  0
 30 32  2  0
 30 55  1  0
 31 56  1  0
 31 57  1  0
 31 58  1  0
 32 34  1  0
 32 59  1  0
 33 34  2  0
 33 60  1  0
 34 61  1  0
M  STY  8   1 DAT   2 DAT   3 DAT   4 DAT   5 DAT   6 DAT   7 DAT   8 DAT
M  STY  8   9 DAT  10 DAT  11 DAT  12 DAT  13 DAT  14 DAT  15 DAT  16 DAT
M  STY  8  17 DAT  18 DAT  19 DAT  20 DAT  21 DAT  22 DAT  23 DAT  24 DAT
M  STY  8  25 DAT  26 DAT  27 DAT  28 DAT  29 DAT  30 DAT  31 DAT  32 DAT
M  STY  8  33 DAT  34 DAT  35 DAT  36 DAT  37 DAT  38 DAT  39 DAT  40 DAT
M  STY  8  41 DAT  42 DAT  43 DAT  44 DAT  45 DAT  46 DAT  47 DAT  48 DAT
M  STY  8  49 DAT  50 DAT  51 DAT  52 DAT  53 DAT  54 DAT  55 DAT  56 DAT
M  STY  5  57 DAT  58 DAT  59 DAT  60 DAT  61 DAT
M  SAL   1  1   1
M  SED   1 [#9&h0]
M  SAL   2  1   2
M  SED   2 [#8&h0]
M  SAL   3  1   3
M  SED   3 [#8&h0]
M  SAL   4  1   4
M  SED   4 [#7&h0]
M  SAL   5  1   5
M  SED   5 [#7&h0]
M  SAL   6  1   6
M  SED   6 [#7&h0]
M  SAL   7  1   7
M  SED   7 [#7&h0]
M  SAL   8  1   8
M  SED   8 [#6&h0]
M  SAL   9  1   9
M  SED   9 [#6&h0]
M  SAL  10  1  10
M  SED  10 [#6&h0]
M  SAL  11  1  11
M  SED  11 [#6&h0]
M  SAL  12  1  12
M  SED  12 [#6&h0]
M  SAL  13  1  13
M  SED  13 [#6&h0]
M  SAL  14  1  14
M  SED  14 [#6&h0]
M  SAL  15  1  15
M  SED  15 [#6&h0]
M  SAL  16  1  16
M  SED  16 [#6&h0]
M  SAL  17  1  17
M  SED  17 [#6&h0]
M  SAL  18  1  18
M  SED  18 [#6&h0]
M  SAL  19  1  19
M  SED  19 [#6&h0]
M  SAL  20  1  20
M  SED  20 [#6&h0]
M  SAL  21  1  21
M  SED  21 [#6&h0]
M  SAL  22  1  22
M  SED  22 [#6&h0]
M  SAL  23  1  23
M  SED  23 [#6&h0]
M  SAL  24  1  24
M  SED  24 [#6&h0]
M  SAL  25  1  25
M  SED  25 [#6&h0]
M  SAL  26  1  26
M  SED  26 [#6&h0]
M  SAL  27  1  27
M  SED  27 [#6&h0]
M  SAL  28  1  28
M  SED  28 [#6&h0]
M  SAL  29  1  29
M  SED  29 [#6&h0]
M  SAL  30  1  30
M  SED  30 [#6&h0]
M  SAL  31  1  31
M  SED  31 [#6&h0]
M  SAL  32  1  32
M  SED  32 [#6&h0]
M  SAL  33  1  33
M  SED  33 [#6&h0]
M  SAL  34  1  34
M  SED  34 [#6&h0]
M  SAL  35  1  35
M  SED  35 [#1&h0]
M  SAL  36  1  36
M  SED  36 [#1&h0]
M  SAL  37  1  37
M  SED  37 [#1&h0]
M  SAL  38  1  38
M  SED  38 [#1&h0]
M  SAL  39  1  39
M  SED  39 [#1&h0]
M  SAL  40  1  40
M  SED  40 [#1&h0]
M  SAL  41  1  41
M  SED  41 [#1&h0]
M  SAL  42  1  42
M  SED  42 [#1&h0]
M  SAL  43  1  43
M  SED  43 [#1&h0]
M  SAL  44  1  44
M  SED  44 [#1&h0]
M  SAL  45  1  45
M  SED  45 [#1&h0]
M  SAL  46  1  46
M  SED  46 [#1&h0]
M  SAL  47  1  47
M  SED  47 [#1&h0]
M  SAL  48  1  48
M  SED  48 [#1&h0]
M  SAL  49  1  49
M  SED  49 [#1&h0]
M  SAL  50  1  50
M  SED  50 [#1&h0]
M  SAL  51  1  51
M  SED  51 [#1&h0]
M  SAL  52  1  52
M  SED  52 [#1&h0]
M  SAL  53  1  53
M  SED  53 [#1&h0]
M  SAL  54  1  54
M  SED  54 [#1&h0]
M  SAL  55  1  55
M  SED  55 [#1&h0]
M  SAL  56  1  56
M  SED  56 [#1&h0]
M  SAL  57  1  57
M  SED  57 [#1&h0]
M  SAL  58  1  58
M  SED  58 [#1&h0]
M  SAL  59  1  59
M  SED  59 [#1&h0]
M  SAL  60  1  60
M  SED  60 [#1&h0]
M  SAL  61  1  61
M  SED  61 [#1&h0]
M  END
>  <Activity>  (81) 
0.01

>  <Mapped(file=2032.csv.activities,property=Cached(PUBCHEM_COMPOUND_CID))>  (81) 
100

>  <MatchIndices>  (81) 
217 

>  <PUBCHEM_ATOM_DEF_STEREO_COUNT>  (81) 
1

>  <PUBCHEM_ATOM_UDEF_STEREO_COUNT>  (81) 
0

>  <PUBCHEM_BONDANNOTATIONS>  (81) 
13  18  8
13  19  8
15  21  8
15  22  8
18  23  8
19  24  8
21  27  8
22  28  8
23  26  8
24  26  8
25  30  8
27  29  8
28  29  8
30  32  8
32  34  8
33  34  8
7  25  8
7  33  8
8  13  5

>  <PUBCHEM_BOND_DEF_STEREO_COUNT>  (81) 
0

>  <PUBCHEM_BOND_UDEF_STEREO_COUNT>  (81) 
0

>  <PUBCHEM_CACTVS_COMPLEXITY>  (81) 
749

>  <PUBCHEM_CACTVS_HBOND_ACCEPTOR>  (81) 
5

>  <PUBCHEM_CACTVS_HBOND_DONOR>  (81) 
1

>  <PUBCHEM_CACTVS_ROTATABLE_BOND>  (81) 
9

>  <PUBCHEM_CACTVS_SUBSKEYS>  (81) 
AAADceB7sQAAAAAAAAAAAAAAAAAAAAAAAAA8YIEAAAAAAAAB0AAAHwAQAAAADCjBng4/iJPIFACoAzT3bACCgCExAiAJ2KE4ZNiIJPrA+ZGEMAhukALI6UeYyKCOAAAAAAAAAAAAAAAAAAAAAAAAAAAAAA==

>  <PUBCHEM_CACTVS_TAUTO_COUNT>  (81) 
4

>  <PUBCHEM_CACTVS_TPSA>  (81) 
66.8

>  <PUBCHEM_COMPONENT_COUNT>  (81) 
1

>  <PUBCHEM_COMPOUND_CANONICALIZED>  (81) 
1

>  <PUBCHEM_COMPOUND_CID>  (81) 
24789258

>  <PUBCHEM_COORDINATE_TYPE>  (81) 
1
5
255

>  <PUBCHEM_EXACT_MASS>  (81) 
458.211804

>  <PUBCHEM_HEAVY_ATOM_COUNT>  (81) 
34

>  <PUBCHEM_ISOTOPIC_ATOM_COUNT>  (81) 
0

>  <PUBCHEM_IUPAC_CAS_NAME>  (81) 
(4S)-4-(3-fluorophenyl)-6-methyl-1-(phenylmethyl)-2-[2-(2-pyridinyl)ethylamino]-4H-pyrimidine-5-carboxylic acid methyl ester

>  <PUBCHEM_IUPAC_INCHI>  (81) 
InChI=1S/C27H27FN4O2/c1-19-24(26(33)34-2)25(21-11-8-12-22(28)17-21)31-27(30-16-14-23-13-6-7-15-29-23)32(19)18-20-9-4-3-5-10-20/h3-13,15,17,25H,14,16,18H2,1-2H3,(H,30,31)/t25-/m0/s1

>  <PUBCHEM_IUPAC_INCHIKEY>  (81) 
OTIGNIYTQKIYDO-VWLOTQADSA-N

>  <PUBCHEM_IUPAC_NAME>  (81) 
methyl (4S)-1-benzyl-4-(3-fluorophenyl)-6-methyl-2-(2-pyridin-2-ylethylamino)-4H-pyrimidine-5-carboxylate

>  <PUBCHEM_IUPAC_OPENEYE_NAME>  (81) 
methyl (4S)-1-benzyl-4-(3-fluorophenyl)-6-methyl-2-[2-(2-pyridyl)ethylamino]-4H-pyrimidine-5-carboxylate

>  <PUBCHEM_IUPAC_SYSTEMATIC_NAME>  (81) 
methyl (4S)-4-(3-fluorophenyl)-6-methyl-1-(phenylmethyl)-2-(2-pyridin-2-ylethylamino)-4H-pyrimidine-5-carboxylate

>  <PUBCHEM_IUPAC_TRADITIONAL_NAME>  (81) 
(4S)-1-benzyl-4-(3-fluorophenyl)-6-methyl-2-[2-(2-pyridyl)ethylamino]-4H-pyrimidine-5-carboxylic acid methyl ester

>  <PUBCHEM_MOLECULAR_FORMULA>  (81) 
C27H27FN4O2

>  <PUBCHEM_MOLECULAR_WEIGHT>  (81) 
458.527283

>  <PUBCHEM_MONOISOTOPIC_WEIGHT>  (81) 
458.211804

>  <PUBCHEM_OPENEYE_CAN_SMILES>  (81) 
CC1=C(C(N=C(N1CC2=CC=CC=C2)NCCC3=CC=CC=N3)C4=CC(=CC=C4)F)C(=O)OC

>  <PUBCHEM_OPENEYE_ISO_SMILES>  (81) 
CC1=C([C@@H](N=C(N1CC2=CC=CC=C2)NCCC3=CC=CC=N3)C4=CC(=CC=C4)F)C(=O)OC

>  <PUBCHEM_TOTAL_CHARGE>  (81) 
0

>  <PUBCHEM_XLOGP3_AA>  (81) 
3.8

$$$$
Largest isolated from Written by BCL::WriteToMDL,6898249
     RDKit          2D

 37 38  0 37  0  0  0  0  0  0999 V2000
    1.2938    1.1384    0.0000 S   0  0  0  0  0  0  0  0  0  0  0  0
   -0.1173    1.6471    0.0000 O   0  0  0  0  0  0  0  0  0  0  0  0
   -2.9396    2.6644    0.0000 O   0  0  0  0  0  0  0  0  0  0  0  0
    1.8025    2.5495    0.0000 O   0  0  0  0  0  0  0  0  0  0  0  0
    0.7851   -0.2727    0.0000 O   0  0  0  0  0  0  0  0  0  0  0  0
   -7.2588   -2.6829    0.0000 O   0  0  0  0  0  0  0  0  0  0  0  0
   -6.1128   -1.7152    0.0000 N   0  0  0  0  0  0  0  0  0  0  0  0
    2.7049    0.6297    0.0000 C   0  0  0  0  0  0  0  0  0  0  0  0
   -1.2634    0.6793    0.0000 C   0  0  0  0  0  0  0  0  0  0  0  0
    2.9699   -0.8467    0.0000 C   0  0  0  0  0  0  0  0  0  0  0  0
    3.8510    1.5975    0.0000 C   0  0  0  0  0  0  0  0  0  0  0  0
    5.5271   -0.3876    0.0000 C   0  0  0  0  0  0  0  0  0  0  0  0
   -2.6745    1.1880    0.0000 C   0  0  0  0  0  0  0  0  0  0  0  0
    4.3811   -1.3553    0.0000 C   0  0  0  0  0  0  0  0  0  0  0  0
    5.2621    1.0888    0.0000 C   0  0  0  0  0  0  0  0  0  0  0  0
   -0.9984   -0.7971    0.0000 C   0  0  0  0  0  0  0  0  0  0  0  0
   -3.5556   -1.2561    0.0000 C   0  0  0  0  0  0  0  0  0  0  0  0
   -3.8206    0.2203    0.0000 C   0  0  0  0  0  0  0  0  0  0  0  0
   -2.1444   -1.7648    0.0000 C   0  0  0  0  0  0  0  0  0  0  0  0
    6.9383   -0.8963    0.0000 C   0  0  0  0  0  0  0  0  0  0  0  0
   -4.7016   -2.2238    0.0000 C   0  0  0  0  0  0  0  0  0  0  0  0
   -4.3507    3.1731    0.0000 C   0  0  0  0  0  0  0  0  0  0  0  0
    1.8239   -1.8144    0.0000 H   0  0  0  0  0  0  0  0  0  0  0  0
    3.5860    3.0739    0.0000 H   0  0  0  0  0  0  0  0  0  0  0  0
    4.6461   -2.8317    0.0000 H   0  0  0  0  0  0  0  0  0  0  0  0
    6.4082    2.0565    0.0000 H   0  0  0  0  0  0  0  0  0  0  0  0
    0.4127   -1.3057    0.0000 H   0  0  0  0  0  0  0  0  0  0  0  0
   -5.2317    0.7290    0.0000 H   0  0  0  0  0  0  0  0  0  0  0  0
   -1.8794   -3.2412    0.0000 H   0  0  0  0  0  0  0  0  0  0  0  0
    6.4296   -2.3074    0.0000 H   0  0  0  0  0  0  0  0  0  0  0  0
    7.4469    0.5148    0.0000 H   0  0  0  0  0  0  0  0  0  0  0  0
    8.3494   -1.4049    0.0000 H   0  0  0  0  0  0  0  0  0  0  0  0
   -4.4366   -3.7002    0.0000 H   0  0  0  0  0  0  0  0  0  0  0  0
   -3.8420    4.5842    0.0000 H   0  0  0  0  0  0  0  0  0  0  0  0
   -4.8593    1.7620    0.0000 H   0  0  0  0  0  0  0  0  0  0  0  0
   -5.7618    3.6818    0.0000 H   0  0  0  0  0  0  0  0  0  0  0  0
   -8.6700   -2.1742    0.0000 H   0  0  0  0  0  0  0  0  0  0  0  0
  1  2  1  0
  1  4  2  0
  1  5  2  0
  1  8  1  0
  2  9  1  0
  3 13  1  0
  3 22  1  0
  6  7  1  0
  6 37  1  0
  7 21  2  0
  8 10  2  0
  8 11  1  0
  9 13  2  0
  9 16  1  0
 10 14  1  0
 10 23  1  0
 11 15  2  0
 11 24  1  0
 12 14  2  0
 12 15  1  0
 12 20  1  0
 13 18  1  0
 14 25  1  0
 15 26  1  0
 16 19  2  0
 16 27  1  0
 17 18  2  0
 17 19  1  0
 17 21  1  0
 18 28  1  0
 19 29  1  0
 20 30  1  0
 20 31  1  0
 20 32  1  0
 21 33  1  0
 22 34  1  0
 22 35  1  0
 22 36  1  0
M  STY  8   1 DAT   2 DAT   3 DAT   4 DAT   5 DAT   6 DAT   7 DAT   8 DAT
M  STY  8   9 DAT  10 DAT  11 DAT  12 DAT  13 DAT  14 DAT  15 DAT  16 DAT
M  STY  8  17 DAT  18 DAT  19 DAT  20 DAT  21 DAT  22 DAT  23 DAT  24 DAT
M  STY  8  25 DAT  26 DAT  27 DAT  28 DAT  29 DAT  30 DAT  31 DAT  32 DAT
M  STY  5  33 DAT  34 DAT  35 DAT  36 DAT  37 DAT
M  SAL   1  1   1
M  SED   1 [#16&h0]
M  SAL   2  1   2
M  SED   2 [#8&h0]
M  SAL   3  1   3
M  SED   3 [#8&h0]
M  SAL   4  1   4
M  SED   4 [#8&h0]
M  SAL   5  1   5
M  SED   5 [#8&h0]
M  SAL   6  1   6
M  SED   6 [#8&h0]
M  SAL   7  1   7
M  SED   7 [#7&h0]
M  SAL   8  1   8
M  SED   8 [#6&h0]
M  SAL   9  1   9
M  SED   9 [#6&h0]
M  SAL  10  1  10
M  SED  10 [#6&h0]
M  SAL  11  1  11
M  SED  11 [#6&h0]
M  SAL  12  1  12
M  SED  12 [#6&h0]
M  SAL  13  1  13
M  SED  13 [#6&h0]
M  SAL  14  1  14
M  SED  14 [#6&h0]
M  SAL  15  1  15
M  SED  15 [#6&h0]
M  SAL  16  1  16
M  SED  16 [#6&h0]
M  SAL  17  1  17
M  SED  17 [#6&h0]
M  SAL  18  1  18
M  SED  18 [#6&h0]
M  SAL  19  1  19
M  SED  19 [#6&h0]
M  SAL  20  1  20
M  SED  20 [#6&h0]
M  SAL  21  1  21
M  SED  21 [#6&h0]
M  SAL  22  1  22
M  SED  22 [#6&h0]
M  SAL  23  1  23
M  SED  23 [#1&h0]
M  SAL  24  1  24
M  SED  24 [#1&h0]
M  SAL  25  1  25
M  SED  25 [#1&h0]
M  SAL  26  1  26
M  SED  26 [#1&h0]
M  SAL  27  1  27
M  SED  27 [#1&h0]
M  SAL  28  1  28
M  SED  28 [#1&h0]
M  SAL  29  1  29
M  SED  29 [#1&h0]
M  SAL  30  1  30
M  SED  30 [#1&h0]
M  SAL  31  1  31
M  SED  31 [#1&h0]
M  SAL  32  1  32
M  SED  32 [#1&h0]
M  SAL  33  1  33
M  SED  33 [#1&h0]
M  SAL  34  1  34
M  SED  34 [#1&h0]
M  SAL  35  1  35
M  SED  35 [#1&h0]
M  SAL  36  1  36
M  SED  36 [#1&h0]
M  SAL  37  1  37
M  SED  37 [#1&h0]
M  END
>  <Activity>  (82) 
0.01

>  <Mapped(file=2032.csv.activities,property=Cached(PUBCHEM_COMPOUND_CID))>  (82) 
100

>  <MatchIndices>  (82) 
32 

>  <PUBCHEM_ATOM_DEF_STEREO_COUNT>  (82) 
0

>  <PUBCHEM_ATOM_UDEF_STEREO_COUNT>  (82) 
0

>  <PUBCHEM_BONDANNOTATIONS>  (82) 
10  14  8
11  15  8
12  14  8
12  15  8
13  18  8
16  19  8
17  18  8
17  19  8
8  10  8
8  11  8
9  13  8
9  16  8

>  <PUBCHEM_BOND_DEF_STEREO_COUNT>  (82) 
1

>  <PUBCHEM_BOND_UDEF_STEREO_COUNT>  (82) 
0

>  <PUBCHEM_CACTVS_COMPLEXITY>  (82) 
465

>  <PUBCHEM_CACTVS_HBOND_ACCEPTOR>  (82) 
6

>  <PUBCHEM_CACTVS_HBOND_DONOR>  (82) 
1

>  <PUBCHEM_CACTVS_ROTATABLE_BOND>  (82) 
5

>  <PUBCHEM_CACTVS_SUBSKEYS>  (82) 
AAADccByOABAAAAAAAAAAAAAAAAAAAAAAAAwYAAAAAAAAAABQAAAHgQECAAADATB2AYyB4AQBAKgAjBjAHBCCEAgIAAIiBgmiJgNJqKEMRqAMCIkwBEKqAeAwBAOMAABAAAAQABgAAIAAACAAAAAAAAAAA==

>  <PUBCHEM_CACTVS_TAUTO_COUNT>  (82) 
2

>  <PUBCHEM_CACTVS_TPSA>  (82) 
93.6

>  <PUBCHEM_COMPONENT_COUNT>  (82) 
1

>  <PUBCHEM_COMPOUND_CANONICALIZED>  (82) 
1

>  <PUBCHEM_COMPOUND_CID>  (82) 
6898249

>  <PUBCHEM_COORDINATE_TYPE>  (82) 
1
5
255

>  <PUBCHEM_EXACT_MASS>  (82) 
321.067094

>  <PUBCHEM_HEAVY_ATOM_COUNT>  (82) 
22

>  <PUBCHEM_ISOTOPIC_ATOM_COUNT>  (82) 
0

>  <PUBCHEM_IUPAC_CAS_NAME>  (82) 
4-methylbenzenesulfonic acid [4-[(E)-hydroxyiminomethyl]-2-methoxyphenyl] ester

>  <PUBCHEM_IUPAC_INCHI>  (82) 
InChI=1S/C15H15NO5S/c1-11-3-6-13(7-4-11)22(18,19)21-14-8-5-12(10-16-17)9-15(14)20-2/h3-10,17H,1-2H3/b16-10+

>  <PUBCHEM_IUPAC_INCHIKEY>  (82) 
DSURLSDBSHMHDJ-MHWRWJLKSA-N

>  <PUBCHEM_IUPAC_NAME>  (82) 
[4-[(E)-hydroxyiminomethyl]-2-methoxyphenyl] 4-methylbenzenesulfonate

>  <PUBCHEM_IUPAC_OPENEYE_NAME>  (82) 
[4-[(E)-hydroxyiminomethyl]-2-methoxy-phenyl] 4-methylbenzenesulfonate

>  <PUBCHEM_IUPAC_SYSTEMATIC_NAME>  (82) 
[4-[(E)-hydroxyiminomethyl]-2-methoxy-phenyl] 4-methylbenzenesulfonate

>  <PUBCHEM_IUPAC_TRADITIONAL_NAME>  (82) 
4-methylbenzenesulfonic acid [4-[(E)-hydroximinomethyl]-2-methoxy-phenyl] ester

>  <PUBCHEM_MOLECULAR_FORMULA>  (82) 
C15H15NO5S

>  <PUBCHEM_MOLECULAR_WEIGHT>  (82) 
321.3483

>  <PUBCHEM_MONOISOTOPIC_WEIGHT>  (82) 
321.067094

>  <PUBCHEM_OPENEYE_CAN_SMILES>  (82) 
CC1=CC=C(C=C1)S(=O)(=O)OC2=C(C=C(C=C2)C=NO)OC

>  <PUBCHEM_OPENEYE_ISO_SMILES>  (82) 
CC1=CC=C(C=C1)S(=O)(=O)OC2=C(C=C(C=C2)/C=N/O)OC

>  <PUBCHEM_TOTAL_CHARGE>  (82) 
0

>  <PUBCHEM_XLOGP3_AA>  (82) 
3.1

$$$$
Largest isolated from Written by BCL::WriteToMDL,1973366
     RDKit          2D

 44 45  0 44  0  0  0  0  0  0999 V2000
   10.7991   -2.3739    0.0000 Cl  0  0  0  0  0  0  0  0  0  0  0  0
    4.5816    1.8206    0.0000 S   0  0  0  0  0  0  0  0  0  0  0  0
   -6.0431    0.7190    0.0000 O   0  0  0  0  0  0  0  0  0  0  0  0
    1.9090    1.8675    0.0000 O   0  0  0  0  0  0  0  0  0  0  0  0
   -4.2631   -0.3739    0.0000 O   0  0  0  0  0  0  0  0  0  0  0  0
   -3.6017    1.6074    0.0000 N   0  0  0  0  0  0  0  0  0  0  0  0
    1.4874   -0.5227    0.0000 N   0  0  0  0  0  0  0  0  0  0  0  0
    2.9728   -0.3140    0.0000 N   0  0  0  0  0  0  0  0  0  0  0  0
   -7.0074   -0.4300    0.0000 C   0  0  0  0  0  0  0  0  0  0  0  0
   -8.1564    0.5343    0.0000 C   0  0  0  0  0  0  0  0  0  0  0  0
   -5.8584   -1.3943    0.0000 C   0  0  0  0  0  0  0  0  0  0  0  0
   -7.9717   -1.5790    0.0000 C   0  0  0  0  0  0  0  0  0  0  0  0
   -2.1245    1.3468    0.0000 C   0  0  0  0  0  0  0  0  0  0  0  0
   -0.6473    1.0862    0.0000 C   0  0  0  0  0  0  0  0  0  0  0  0
   -4.5659    0.4584    0.0000 C   0  0  0  0  0  0  0  0  0  0  0  0
    0.8299    0.8256    0.0000 C   0  0  0  0  0  0  0  0  0  0  0  0
    5.8251    0.9817    0.0000 C   0  0  0  0  0  0  0  0  0  0  0  0
    7.0686    0.1428    0.0000 C   0  0  0  0  0  0  0  0  0  0  0  0
    3.2334    1.1632    0.0000 C   0  0  0  0  0  0  0  0  0  0  0  0
    6.9638   -1.3535    0.0000 C   0  0  0  0  0  0  0  0  0  0  0  0
    8.4168    0.8003    0.0000 C   0  0  0  0  0  0  0  0  0  0  0  0
    8.2073   -2.1924    0.0000 C   0  0  0  0  0  0  0  0  0  0  0  0
    9.6603   -0.0386    0.0000 C   0  0  0  0  0  0  0  0  0  0  0  0
    9.5556   -1.5350    0.0000 C   0  0  0  0  0  0  0  0  0  0  0  0
   -7.3677   -2.2268    0.0000 H   0  0  0  0  0  0  0  0  0  0  0  0
   -8.8042   -0.0697    0.0000 H   0  0  0  0  0  0  0  0  0  0  0  0
   -7.1921    1.6833    0.0000 H   0  0  0  0  0  0  0  0  0  0  0  0
   -9.3054    1.4986    0.0000 H   0  0  0  0  0  0  0  0  0  0  0  0
   -6.3409   -2.1371    0.0000 H   0  0  0  0  0  0  0  0  0  0  0  0
   -5.1418   -0.8737    0.0000 H   0  0  0  0  0  0  0  0  0  0  0  0
   -4.7094   -2.3585    0.0000 H   0  0  0  0  0  0  0  0  0  0  0  0
   -8.7145   -1.0965    0.0000 H   0  0  0  0  0  0  0  0  0  0  0  0
   -8.9360   -2.7280    0.0000 H   0  0  0  0  0  0  0  0  0  0  0  0
   -1.8639    2.8240    0.0000 H   0  0  0  0  0  0  0  0  0  0  0  0
   -2.3851   -0.1304    0.0000 H   0  0  0  0  0  0  0  0  0  0  0  0
   -0.3867    2.5634    0.0000 H   0  0  0  0  0  0  0  0  0  0  0  0
   -0.9079   -0.3910    0.0000 H   0  0  0  0  0  0  0  0  0  0  0  0
   -4.1146    3.0170    0.0000 H   0  0  0  0  0  0  0  0  0  0  0  0
    4.9862   -0.2618    0.0000 H   0  0  0  0  0  0  0  0  0  0  0  0
    6.6640    2.2252    0.0000 H   0  0  0  0  0  0  0  0  0  0  0  0
    5.6156   -2.0110    0.0000 H   0  0  0  0  0  0  0  0  0  0  0  0
    8.5216    2.2966    0.0000 H   0  0  0  0  0  0  0  0  0  0  0  0
    8.1026   -3.6887    0.0000 H   0  0  0  0  0  0  0  0  0  0  0  0
   11.0086    0.6188    0.0000 H   0  0  0  0  0  0  0  0  0  0  0  0
  1 24  1  0
  2 17  1  0
  2 19  1  0
  3  9  1  0
  3 15  1  0
  4 16  1  0
  4 19  1  0
  5 15  2  0
  6 13  1  0
  6 15  1  0
  6 38  1  0
  7  8  1  0
  7 16  2  0
  8 19  2  0
  9 10  1  0
  9 11  1  0
  9 12  1  0
 10 26  1  0
 10 27  1  0
 10 28  1  0
 11 29  1  0
 11 30  1  0
 11 31  1  0
 12 25  1  0
 12 32  1  0
 12 33  1  0
 13 14  1  0
 13 34  1  0
 13 35  1  0
 14 16  1  0
 14 36  1  0
 14 37  1  0
 17 18  1  0
 17 39  1  0
 17 40  1  0
 18 20  2  0
 18 21  1  0
 20 22  1  0
 20 41  1  0
 21 23  2  0
 21 42  1  0
 22 24  2  0
 22 43  1  0
 23 24  1  0
 23 44  1  0
M  STY  8   1 DAT   2 DAT   3 DAT   4 DAT   5 DAT   6 DAT   7 DAT   8 DAT
M  STY  8   9 DAT  10 DAT  11 DAT  12 DAT  13 DAT  14 DAT  15 DAT  16 DAT
M  STY  8  17 DAT  18 DAT  19 DAT  20 DAT  21 DAT  22 DAT  23 DAT  24 DAT
M  STY  8  25 DAT  26 DAT  27 DAT  28 DAT  29 DAT  30 DAT  31 DAT  32 DAT
M  STY  8  33 DAT  34 DAT  35 DAT  36 DAT  37 DAT  38 DAT  39 DAT  40 DAT
M  STY  4  41 DAT  42 DAT  43 DAT  44 DAT
M  SAL   1  1   1
M  SED   1 [#17&h0]
M  SAL   2  1   2
M  SED   2 [#16&h0]
M  SAL   3  1   3
M  SED   3 [#8&h0]
M  SAL   4  1   4
M  SED   4 [#8&h0]
M  SAL   5  1   5
M  SED   5 [#8&h0]
M  SAL   6  1   6
M  SED   6 [#7&h0]
M  SAL   7  1   7
M  SED   7 [#7&h0]
M  SAL   8  1   8
M  SED   8 [#7&h0]
M  SAL   9  1   9
M  SED   9 [#6&h0]
M  SAL  10  1  10
M  SED  10 [#6&h0]
M  SAL  11  1  11
M  SED  11 [#6&h0]
M  SAL  12  1  12
M  SED  12 [#6&h0]
M  SAL  13  1  13
M  SED  13 [#6&h0]
M  SAL  14  1  14
M  SED  14 [#6&h0]
M  SAL  15  1  15
M  SED  15 [#6&h0]
M  SAL  16  1  16
M  SED  16 [#6&h0]
M  SAL  17  1  17
M  SED  17 [#6&h0]
M  SAL  18  1  18
M  SED  18 [#6&h0]
M  SAL  19  1  19
M  SED  19 [#6&h0]
M  SAL  20  1  20
M  SED  20 [#6&h0]
M  SAL  21  1  21
M  SED  21 [#6&h0]
M  SAL  22  1  22
M  SED  22 [#6&h0]
M  SAL  23  1  23
M  SED  23 [#6&h0]
M  SAL  24  1  24
M  SED  24 [#6&h0]
M  SAL  25  1  25
M  SED  25 [#1&h0]
M  SAL  26  1  26
M  SED  26 [#1&h0]
M  SAL  27  1  27
M  SED  27 [#1&h0]
M  SAL  28  1  28
M  SED  28 [#1&h0]
M  SAL  29  1  29
M  SED  29 [#1&h0]
M  SAL  30  1  30
M  SED  30 [#1&h0]
M  SAL  31  1  31
M  SED  31 [#1&h0]
M  SAL  32  1  32
M  SED  32 [#1&h0]
M  SAL  33  1  33
M  SED  33 [#1&h0]
M  SAL  34  1  34
M  SED  34 [#1&h0]
M  SAL  35  1  35
M  SED  35 [#1&h0]
M  SAL  36  1  36
M  SED  36 [#1&h0]
M  SAL  37  1  37
M  SED  37 [#1&h0]
M  SAL  38  1  38
M  SED  38 [#1&h0]
M  SAL  39  1  39
M  SED  39 [#1&h0]
M  SAL  40  1  40
M  SED  40 [#1&h0]
M  SAL  41  1  41
M  SED  41 [#1&h0]
M  SAL  42  1  42
M  SED  42 [#1&h0]
M  SAL  43  1  43
M  SED  43 [#1&h0]
M  SAL  44  1  44
M  SED  44 [#1&h0]
M  END
>  <Activity>  (83) 
0.01

>  <Mapped(file=2032.csv.activities,property=Cached(PUBCHEM_COMPOUND_CID))>  (83) 
100

>  <MatchIndices>  (83) 
12 

>  <PUBCHEM_ATOM_DEF_STEREO_COUNT>  (83) 
0

>  <PUBCHEM_ATOM_UDEF_STEREO_COUNT>  (83) 
0

>  <PUBCHEM_BONDANNOTATIONS>  (83) 
18  20  8
18  21  8
20  22  8
21  23  8
22  24  8
23  24  8
4  16  8
4  19  8
7  16  8
7  8  8
8  19  8

>  <PUBCHEM_BOND_DEF_STEREO_COUNT>  (83) 
0

>  <PUBCHEM_BOND_UDEF_STEREO_COUNT>  (83) 
0

>  <PUBCHEM_CACTVS_COMPLEXITY>  (83) 
401

>  <PUBCHEM_CACTVS_HBOND_ACCEPTOR>  (83) 
4

>  <PUBCHEM_CACTVS_HBOND_DONOR>  (83) 
1

>  <PUBCHEM_CACTVS_ROTATABLE_BOND>  (83) 
8

>  <PUBCHEM_CACTVS_SUBSKEYS>  (83) 
AAADceB7MABEAAAAAAAAAAAAAAAAAWAAAAAwAAAAAAAAAAABwAAAHgYYAAAADEbF2iSyCILABEiqAiFyGAASAABoBRAaiIE4AokIICqhUxCMIAAingAIiAcAgAAOBAAAAAAAAAAIAAAAAAAAAAAAAAAAAA==

>  <PUBCHEM_CACTVS_TAUTO_COUNT>  (83) 
2

>  <PUBCHEM_CACTVS_TPSA>  (83) 
103

>  <PUBCHEM_COMPONENT_COUNT>  (83) 
1

>  <PUBCHEM_COMPOUND_CANONICALIZED>  (83) 
1

>  <PUBCHEM_COMPOUND_CID>  (83) 
1973366

>  <PUBCHEM_COORDINATE_TYPE>  (83) 
1
5
255

>  <PUBCHEM_EXACT_MASS>  (83) 
369.09139

>  <PUBCHEM_HEAVY_ATOM_COUNT>  (83) 
24

>  <PUBCHEM_ISOTOPIC_ATOM_COUNT>  (83) 
0

>  <PUBCHEM_IUPAC_CAS_NAME>  (83) 
N-[2-[5-[(4-chlorophenyl)methylthio]-1,3,4-oxadiazol-2-yl]ethyl]carbamic acid tert-butyl ester

>  <PUBCHEM_IUPAC_INCHI>  (83) 
InChI=1S/C16H20ClN3O3S/c1-16(2,3)23-14(21)18-9-8-13-19-20-15(22-13)24-10-11-4-6-12(17)7-5-11/h4-7H,8-10H2,1-3H3,(H,18,21)

>  <PUBCHEM_IUPAC_INCHIKEY>  (83) 
PGJHCSLMLVAFSE-UHFFFAOYSA-N

>  <PUBCHEM_IUPAC_NAME>  (83) 
tert-butyl N-[2-[5-[(4-chlorophenyl)methylsulfanyl]-1,3,4-oxadiazol-2-yl]ethyl]carbamate

>  <PUBCHEM_IUPAC_OPENEYE_NAME>  (83) 
tert-butyl N-[2-[5-[(4-chlorophenyl)methylsulfanyl]-1,3,4-oxadiazol-2-yl]ethyl]carbamate

>  <PUBCHEM_IUPAC_SYSTEMATIC_NAME>  (83) 
tert-butyl N-[2-[5-[(4-chlorophenyl)methylsulfanyl]-1,3,4-oxadiazol-2-yl]ethyl]carbamate

>  <PUBCHEM_IUPAC_TRADITIONAL_NAME>  (83) 
N-[2-[5-[(4-chlorobenzyl)thio]-1,3,4-oxadiazol-2-yl]ethyl]carbamic acid tert-butyl ester

>  <PUBCHEM_MOLECULAR_FORMULA>  (83) 
C16H20ClN3O3S

>  <PUBCHEM_MOLECULAR_WEIGHT>  (83) 
369.8663

>  <PUBCHEM_MONOISOTOPIC_WEIGHT>  (83) 
369.09139

>  <PUBCHEM_OPENEYE_CAN_SMILES>  (83) 
CC(C)(C)OC(=O)NCCC1=NN=C(O1)SCC2=CC=C(C=C2)Cl

>  <PUBCHEM_OPENEYE_ISO_SMILES>  (83) 
CC(C)(C)OC(=O)NCCC1=NN=C(O1)SCC2=CC=C(C=C2)Cl

>  <PUBCHEM_TOTAL_CHARGE>  (83) 
0

>  <PUBCHEM_XLOGP3_AA>  (83) 
3.7

$$$$
Largest isolated from Written by BCL::WriteToMDL,2057144
     RDKit          2D

 33 36  0 33  0  0  0  0  0  0999 V2000
   -0.3235    0.2364    0.0000 S   0  0  0  0  0  0  0  0  0  0  0  0
   -2.0852   -1.7740    0.0000 S   0  0  0  0  0  0  0  0  0  0  0  0
    0.7965   -2.1907    0.0000 S   0  0  0  0  0  0  0  0  0  0  0  0
   -4.1383   -0.4796    0.0000 N   0  0  0  0  0  0  0  0  0  0  0  0
    3.1322   -1.5311    0.0000 N   0  0  0  0  0  0  0  0  0  0  0  0
   -4.3819   -3.1415    0.0000 N   0  0  0  0  0  0  0  0  0  0  0  0
    2.6117   -4.1529    0.0000 N   0  0  0  0  0  0  0  0  0  0  0  0
   -3.0840    1.9767    0.0000 C   0  0  0  0  0  0  0  0  0  0  0  0
    2.8171    1.1233    0.0000 C   0  0  0  0  0  0  0  0  0  0  0  0
   -2.6648    3.4170    0.0000 C   0  0  0  0  0  0  0  0  0  0  0  0
   -1.6271    2.3338    0.0000 C   0  0  0  0  0  0  0  0  0  0  0  0
    3.7858    2.2685    0.0000 C   0  0  0  0  0  0  0  0  0  0  0  0
    4.2932    0.8569    0.0000 C   0  0  0  0  0  0  0  0  0  0  0  0
   -2.9853    0.4800    0.0000 C   0  0  0  0  0  0  0  0  0  0  0  0
    2.2984   -0.2842    0.0000 C   0  0  0  0  0  0  0  0  0  0  0  0
   -1.7165   -0.3200    0.0000 C   0  0  0  0  0  0  0  0  0  0  0  0
    0.8549   -0.6919    0.0000 C   0  0  0  0  0  0  0  0  0  0  0  0
   -3.5819   -1.8726    0.0000 C   0  0  0  0  0  0  0  0  0  0  0  0
    2.2040   -2.7094    0.0000 C   0  0  0  0  0  0  0  0  0  0  0  0
    1.5210    1.8785    0.0000 H   0  0  0  0  0  0  0  0  0  0  0  0
   -4.5751    2.1395    0.0000 H   0  0  0  0  0  0  0  0  0  0  0  0
   -4.0103    4.0799    0.0000 H   0  0  0  0  0  0  0  0  0  0  0  0
   -1.7782    4.6270    0.0000 H   0  0  0  0  0  0  0  0  0  0  0  0
   -0.3802    3.1676    0.0000 H   0  0  0  0  0  0  0  0  0  0  0  0
   -1.0225    0.9610    0.0000 H   0  0  0  0  0  0  0  0  0  0  0  0
    2.8263    3.4214    0.0000 H   0  0  0  0  0  0  0  0  0  0  0  0
    5.0879    3.0133    0.0000 H   0  0  0  0  0  0  0  0  0  0  0  0
    5.7715    1.1115    0.0000 H   0  0  0  0  0  0  0  0  0  0  0  0
    4.2872   -0.6431    0.0000 H   0  0  0  0  0  0  0  0  0  0  0  0
   -5.8808   -3.0831    0.0000 H   0  0  0  0  0  0  0  0  0  0  0  0
   -3.6830   -4.4687    0.0000 H   0  0  0  0  0  0  0  0  0  0  0  0
    4.0656   -4.5216    0.0000 H   0  0  0  0  0  0  0  0  0  0  0  0
    1.5654   -5.2278    0.0000 H   0  0  0  0  0  0  0  0  0  0  0  0
  1 16  1  0
  1 17  1  0
  2 16  1  0
  2 18  1  0
  3 17  1  0
  3 19  1  0
  4 14  1  0
  4 18  2  0
  5 15  1  0
  5 19  2  0
  6 18  1  0
  6 30  1  0
  6 31  1  0
  7 19  1  0
  7 32  1  0
  7 33  1  0
  8 10  1  0
  8 11  1  0
  8 14  1  0
  8 21  1  0
  9 12  1  0
  9 13  1  0
  9 15  1  0
  9 20  1  0
 10 11  1  0
 10 22  1  0
 10 23  1  0
 11 24  1  0
 11 25  1  0
 12 13  1  0
 12 26  1  0
 12 27  1  0
 13 28  1  0
 13 29  1  0
 14 16  2  0
 15 17  2  0
M  STY  8   1 DAT   2 DAT   3 DAT   4 DAT   5 DAT   6 DAT   7 DAT   8 DAT
M  STY  8   9 DAT  10 DAT  11 DAT  12 DAT  13 DAT  14 DAT  15 DAT  16 DAT
M  STY  8  17 DAT  18 DAT  19 DAT  20 DAT  21 DAT  22 DAT  23 DAT  24 DAT
M  STY  8  25 DAT  26 DAT  27 DAT  28 DAT  29 DAT  30 DAT  31 DAT  32 DAT
M  STY  1  33 DAT
M  SAL   1  1   1
M  SED   1 [#16&h0]
M  SAL   2  1   2
M  SED   2 [#16&h0]
M  SAL   3  1   3
M  SED   3 [#16&h0]
M  SAL   4  1   4
M  SED   4 [#7&h0]
M  SAL   5  1   5
M  SED   5 [#7&h0]
M  SAL   6  1   6
M  SED   6 [#7&h0]
M  SAL   7  1   7
M  SED   7 [#7&h0]
M  SAL   8  1   8
M  SED   8 [#6&h0]
M  SAL   9  1   9
M  SED   9 [#6&h0]
M  SAL  10  1  10
M  SED  10 [#6&h0]
M  SAL  11  1  11
M  SED  11 [#6&h0]
M  SAL  12  1  12
M  SED  12 [#6&h0]
M  SAL  13  1  13
M  SED  13 [#6&h0]
M  SAL  14  1  14
M  SED  14 [#6&h0]
M  SAL  15  1  15
M  SED  15 [#6&h0]
M  SAL  16  1  16
M  SED  16 [#6&h0]
M  SAL  17  1  17
M  SED  17 [#6&h0]
M  SAL  18  1  18
M  SED  18 [#6&h0]
M  SAL  19  1  19
M  SED  19 [#6&h0]
M  SAL  20  1  20
M  SED  20 [#1&h0]
M  SAL  21  1  21
M  SED  21 [#1&h0]
M  SAL  22  1  22
M  SED  22 [#1&h0]
M  SAL  23  1  23
M  SED  23 [#1&h0]
M  SAL  24  1  24
M  SED  24 [#1&h0]
M  SAL  25  1  25
M  SED  25 [#1&h0]
M  SAL  26  1  26
M  SED  26 [#1&h0]
M  SAL  27  1  27
M  SED  27 [#1&h0]
M  SAL  28  1  28
M  SED  28 [#1&h0]
M  SAL  29  1  29
M  SED  29 [#1&h0]
M  SAL  30  1  30
M  SED  30 [#1&h0]
M  SAL  31  1  31
M  SED  31 [#1&h0]
M  SAL  32  1  32
M  SED  32 [#1&h0]
M  SAL  33  1  33
M  SED  33 [#1&h0]
M  END
>  <Activity>  (84) 
0.01

>  <Mapped(file=2032.csv.activities,property=Cached(PUBCHEM_COMPOUND_CID))>  (84) 
100

>  <MatchIndices>  (84) 
206 

>  <PUBCHEM_ATOM_DEF_STEREO_COUNT>  (84) 
0

>  <PUBCHEM_ATOM_UDEF_STEREO_COUNT>  (84) 
0

>  <PUBCHEM_BONDANNOTATIONS>  (84) 
14  16  8
15  17  8
2  16  8
2  18  8
3  17  8
3  19  8
4  14  8
4  18  8
5  15  8
5  19  8

>  <PUBCHEM_BOND_DEF_STEREO_COUNT>  (84) 
0

>  <PUBCHEM_BOND_UDEF_STEREO_COUNT>  (84) 
0

>  <PUBCHEM_CACTVS_COMPLEXITY>  (84) 
318

>  <PUBCHEM_CACTVS_HBOND_ACCEPTOR>  (84) 
3

>  <PUBCHEM_CACTVS_HBOND_DONOR>  (84) 
2

>  <PUBCHEM_CACTVS_ROTATABLE_BOND>  (84) 
4

>  <PUBCHEM_CACTVS_SUBSKEYS>  (84) 
AAADccBzgABgAAAAAAAAAAAAGDAAAWLAAAAAAAAAAAAAAAAB4AAAHAQQAAAADQiBVgABkRJIEAikAQRgZAAA8alhCDkAABQwAAiAIAIgkACEAAAAgAIgACAAAAAIAAAAAAAAAAAAAAAAAAAAAAAAAAAAAA==

>  <PUBCHEM_CACTVS_TAUTO_COUNT>  (84) 
3

>  <PUBCHEM_CACTVS_TPSA>  (84) 
160

>  <PUBCHEM_COMPONENT_COUNT>  (84) 
1

>  <PUBCHEM_COMPOUND_CANONICALIZED>  (84) 
1

>  <PUBCHEM_COMPOUND_CID>  (84) 
2057144

>  <PUBCHEM_COORDINATE_TYPE>  (84) 
1
5
255

>  <PUBCHEM_EXACT_MASS>  (84) 
310.038059

>  <PUBCHEM_HEAVY_ATOM_COUNT>  (84) 
19

>  <PUBCHEM_ISOTOPIC_ATOM_COUNT>  (84) 
0

>  <PUBCHEM_IUPAC_CAS_NAME>  (84) 
5-[(2-amino-4-cyclopropyl-5-thiazolyl)thio]-4-cyclopropyl-2-thiazolamine

>  <PUBCHEM_IUPAC_INCHI>  (84) 
InChI=1S/C12H14N4S3/c13-11-15-7(5-1-2-5)9(18-11)17-10-8(6-3-4-6)16-12(14)19-10/h5-6H,1-4H2,(H2,13,15)(H2,14,16)

>  <PUBCHEM_IUPAC_INCHIKEY>  (84) 
SEUQSBBGEOQXPO-UHFFFAOYSA-N

>  <PUBCHEM_IUPAC_NAME>  (84) 
5-[(2-amino-4-cyclopropyl-1,3-thiazol-5-yl)sulfanyl]-4-cyclopropyl-1,3-thiazol-2-amine

>  <PUBCHEM_IUPAC_OPENEYE_NAME>  (84) 
5-(2-amino-4-cyclopropyl-thiazol-5-yl)sulfanyl-4-cyclopropyl-thiazol-2-amine

>  <PUBCHEM_IUPAC_SYSTEMATIC_NAME>  (84) 
5-[(2-azanyl-4-cyclopropyl-1,3-thiazol-5-yl)sulfanyl]-4-cyclopropyl-1,3-thiazol-2-amine

>  <PUBCHEM_IUPAC_TRADITIONAL_NAME>  (84) 
[5-[(2-amino-4-cyclopropyl-thiazol-5-yl)thio]-4-cyclopropyl-thiazol-2-yl]amine

>  <PUBCHEM_MOLECULAR_FORMULA>  (84) 
C12H14N4S3

>  <PUBCHEM_MOLECULAR_WEIGHT>  (84) 
310.46136

>  <PUBCHEM_MONOISOTOPIC_WEIGHT>  (84) 
310.038059

>  <PUBCHEM_OPENEYE_CAN_SMILES>  (84) 
C1CC1C2=C(SC(=N2)N)SC3=C(N=C(S3)N)C4CC4

>  <PUBCHEM_OPENEYE_ISO_SMILES>  (84) 
C1CC1C2=C(SC(=N2)N)SC3=C(N=C(S3)N)C4CC4

>  <PUBCHEM_TOTAL_CHARGE>  (84) 
0

>  <PUBCHEM_XLOGP3_AA>  (84) 
3.2

$$$$
Largest isolated from Written by BCL::WriteToMDL,657581
     RDKit          2D

 40 42  0 40  0  0  0  0  0  0999 V2000
   -0.8205   -2.5183    0.0000 O   0  0  0  0  0  0  0  0  0  0  0  0
    5.0956   -1.6784    0.0000 O   0  0  0  0  0  0  0  0  0  0  0  0
    3.6111    2.0021    0.0000 N   0  0  0  0  0  0  0  0  0  0  0  0
    1.1659   -1.1237    0.0000 C   0  0  0  0  0  0  0  0  0  0  0  0
    2.6380   -0.8357    0.0000 C   0  0  0  0  0  0  0  0  0  0  0  0
    3.1246    0.5832    0.0000 C   0  0  0  0  0  0  0  0  0  0  0  0
    0.6793   -2.5426    0.0000 C   0  0  0  0  0  0  0  0  0  0  0  0
   -1.2608   -1.0844    0.0000 C   0  0  0  0  0  0  0  0  0  0  0  0
   -0.0332   -0.2225    0.0000 C   0  0  0  0  0  0  0  0  0  0  0  0
   -2.6797   -0.5978    0.0000 C   0  0  0  0  0  0  0  0  0  0  0  0
    3.6235   -1.9665    0.0000 C   0  0  0  0  0  0  0  0  0  0  0  0
    1.6648   -3.6734    0.0000 C   0  0  0  0  0  0  0  0  0  0  0  0
    3.1369   -3.3854    0.0000 C   0  0  0  0  0  0  0  0  0  0  0  0
   -4.0986   -0.1112    0.0000 C   0  0  0  0  0  0  0  0  0  0  0  0
    2.6256    3.1329    0.0000 C   0  0  0  0  0  0  0  0  0  0  0  0
    5.0832    2.2902    0.0000 C   0  0  0  0  0  0  0  0  0  0  0  0
   -4.3867    1.3608    0.0000 C   0  0  0  0  0  0  0  0  0  0  0  0
   -5.2294   -1.0967    0.0000 C   0  0  0  0  0  0  0  0  0  0  0  0
   -5.8055    1.8474    0.0000 C   0  0  0  0  0  0  0  0  0  0  0  0
   -6.6483   -0.6102    0.0000 C   0  0  0  0  0  0  0  0  0  0  0  0
   -6.9364    0.8619    0.0000 C   0  0  0  0  0  0  0  0  0  0  0  0
    1.7057    1.0698    0.0000 H   0  0  0  0  0  0  0  0  0  0  0  0
    4.5435    0.0966    0.0000 H   0  0  0  0  0  0  0  0  0  0  0  0
   -0.0089    1.2773    0.0000 H   0  0  0  0  0  0  0  0  0  0  0  0
   -3.1663   -2.0167    0.0000 H   0  0  0  0  0  0  0  0  0  0  0  0
   -2.1931    0.8211    0.0000 H   0  0  0  0  0  0  0  0  0  0  0  0
    1.1783   -5.0923    0.0000 H   0  0  0  0  0  0  0  0  0  0  0  0
    4.1224   -4.5162    0.0000 H   0  0  0  0  0  0  0  0  0  0  0  0
    3.7565    4.1184    0.0000 H   0  0  0  0  0  0  0  0  0  0  0  0
    4.7952    3.7622    0.0000 H   0  0  0  0  0  0  0  0  0  0  0  0
    5.3713    0.8181    0.0000 H   0  0  0  0  0  0  0  0  0  0  0  0
    6.5553    2.5782    0.0000 H   0  0  0  0  0  0  0  0  0  0  0  0
    1.4948    2.1474    0.0000 H   0  0  0  0  0  0  0  0  0  0  0  0
    1.6401    4.2638    0.0000 H   0  0  0  0  0  0  0  0  0  0  0  0
   -3.2558    2.3463    0.0000 H   0  0  0  0  0  0  0  0  0  0  0  0
   -4.9414   -2.5688    0.0000 H   0  0  0  0  0  0  0  0  0  0  0  0
    6.0811   -2.8093    0.0000 H   0  0  0  0  0  0  0  0  0  0  0  0
   -6.0936    3.3195    0.0000 H   0  0  0  0  0  0  0  0  0  0  0  0
   -7.7792   -1.5957    0.0000 H   0  0  0  0  0  0  0  0  0  0  0  0
   -8.3553    1.3485    0.0000 H   0  0  0  0  0  0  0  0  0  0  0  0
  1  7  1  0
  1  8  1  0
  2 11  1  0
  2 37  1  0
  3  6  1  0
  3 15  1  0
  3 16  1  0
  4  5  1  0
  4  7  2  0
  4  9  1  0
  5  6  1  0
  5 11  2  0
  6 22  1  0
  6 23  1  0
  7 12  1  0
  8  9  2  0
  8 10  1  0
  9 24  1  0
 10 14  1  0
 10 25  1  0
 10 26  1  0
 11 13  1  0
 12 13  2  0
 12 27  1  0
 13 28  1  0
 14 17  2  0
 14 18  1  0
 15 29  1  0
 15 33  1  0
 15 34  1  0
 16 30  1  0
 16 31  1  0
 16 32  1  0
 17 19  1  0
 17 35  1  0
 18 20  2  0
 18 36  1  0
 19 21  2  0
 19 38  1  0
 20 21  1  0
 20 39  1  0
 21 40  1  0
M  STY  8   1 DAT   2 DAT   3 DAT   4 DAT   5 DAT   6 DAT   7 DAT   8 DAT
M  STY  8   9 DAT  10 DAT  11 DAT  12 DAT  13 DAT  14 DAT  15 DAT  16 DAT
M  STY  8  17 DAT  18 DAT  19 DAT  20 DAT  21 DAT  22 DAT  23 DAT  24 DAT
M  STY  8  25 DAT  26 DAT  27 DAT  28 DAT  29 DAT  30 DAT  31 DAT  32 DAT
M  STY  8  33 DAT  34 DAT  35 DAT  36 DAT  37 DAT  38 DAT  39 DAT  40 DAT
M  SAL   1  1   1
M  SED   1 [#8&h0]
M  SAL   2  1   2
M  SED   2 [#8&h0]
M  SAL   3  1   3
M  SED   3 [#7&h0]
M  SAL   4  1   4
M  SED   4 [#6&h0]
M  SAL   5  1   5
M  SED   5 [#6&h0]
M  SAL   6  1   6
M  SED   6 [#6&h0]
M  SAL   7  1   7
M  SED   7 [#6&h0]
M  SAL   8  1   8
M  SED   8 [#6&h0]
M  SAL   9  1   9
M  SED   9 [#6&h0]
M  SAL  10  1  10
M  SED  10 [#6&h0]
M  SAL  11  1  11
M  SED  11 [#6&h0]
M  SAL  12  1  12
M  SED  12 [#6&h0]
M  SAL  13  1  13
M  SED  13 [#6&h0]
M  SAL  14  1  14
M  SED  14 [#6&h0]
M  SAL  15  1  15
M  SED  15 [#6&h0]
M  SAL  16  1  16
M  SED  16 [#6&h0]
M  SAL  17  1  17
M  SED  17 [#6&h0]
M  SAL  18  1  18
M  SED  18 [#6&h0]
M  SAL  19  1  19
M  SED  19 [#6&h0]
M  SAL  20  1  20
M  SED  20 [#6&h0]
M  SAL  21  1  21
M  SED  21 [#6&h0]
M  SAL  22  1  22
M  SED  22 [#1&h0]
M  SAL  23  1  23
M  SED  23 [#1&h0]
M  SAL  24  1  24
M  SED  24 [#1&h0]
M  SAL  25  1  25
M  SED  25 [#1&h0]
M  SAL  26  1  26
M  SED  26 [#1&h0]
M  SAL  27  1  27
M  SED  27 [#1&h0]
M  SAL  28  1  28
M  SED  28 [#1&h0]
M  SAL  29  1  29
M  SED  29 [#1&h0]
M  SAL  30  1  30
M  SED  30 [#1&h0]
M  SAL  31  1  31
M  SED  31 [#1&h0]
M  SAL  32  1  32
M  SED  32 [#1&h0]
M  SAL  33  1  33
M  SED  33 [#1&h0]
M  SAL  34  1  34
M  SED  34 [#1&h0]
M  SAL  35  1  35
M  SED  35 [#1&h0]
M  SAL  36  1  36
M  SED  36 [#1&h0]
M  SAL  37  1  37
M  SED  37 [#1&h0]
M  SAL  38  1  38
M  SED  38 [#1&h0]
M  SAL  39  1  39
M  SED  39 [#1&h0]
M  SAL  40  1  40
M  SED  40 [#1&h0]
M  END
>  <Activity>  (85) 
0.01

>  <Mapped(file=2032.csv.activities,property=Cached(PUBCHEM_COMPOUND_CID))>  (85) 
100

>  <MatchIndices>  (85) 
29 

>  <PUBCHEM_ATOM_DEF_STEREO_COUNT>  (85) 
0

>  <PUBCHEM_ATOM_UDEF_STEREO_COUNT>  (85) 
0

>  <PUBCHEM_BONDANNOTATIONS>  (85) 
1  7  8
1  8  8
11  13  8
12  13  8
14  17  8
14  18  8
17  19  8
18  20  8
19  21  8
20  21  8
4  5  8
4  7  8
4  9  8
5  11  8
7  12  8
8  9  8

>  <PUBCHEM_BOND_DEF_STEREO_COUNT>  (85) 
0

>  <PUBCHEM_BOND_UDEF_STEREO_COUNT>  (85) 
0

>  <PUBCHEM_CACTVS_COMPLEXITY>  (85) 
327

>  <PUBCHEM_CACTVS_HBOND_ACCEPTOR>  (85) 
3

>  <PUBCHEM_CACTVS_HBOND_DONOR>  (85) 
1

>  <PUBCHEM_CACTVS_ROTATABLE_BOND>  (85) 
4

>  <PUBCHEM_CACTVS_SUBSKEYS>  (85) 
AAADceB6MAAAAAAAAAAAAAAAAAAAASAAAAAwYAAAAAAAAEgB9AAAHgAACAAADATBmAQyBsMABkCIAqBSAACCCAAkIAAIiAEODMgMJjKGtRuGeSjmwBEIuYf+/f7OgQABAAAYAAACAAIAADAAAAAAAAAAAA==

>  <PUBCHEM_CACTVS_TAUTO_COUNT>  (85) 
9

>  <PUBCHEM_CACTVS_TPSA>  (85) 
36.6

>  <PUBCHEM_COMPONENT_COUNT>  (85) 
1

>  <PUBCHEM_COMPOUND_CANONICALIZED>  (85) 
1

>  <PUBCHEM_COMPOUND_CID>  (85) 
657581

>  <PUBCHEM_COORDINATE_TYPE>  (85) 
1
5
255

>  <PUBCHEM_EXACT_MASS>  (85) 
281.141579

>  <PUBCHEM_HEAVY_ATOM_COUNT>  (85) 
21

>  <PUBCHEM_ISOTOPIC_ATOM_COUNT>  (85) 
0

>  <PUBCHEM_IUPAC_CAS_NAME>  (85) 
4-[(dimethylamino)methyl]-2-(phenylmethyl)-5-benzofuranol

>  <PUBCHEM_IUPAC_INCHI>  (85) 
InChI=1S/C18H19NO2/c1-19(2)12-16-15-11-14(10-13-6-4-3-5-7-13)21-18(15)9-8-17(16)20/h3-9,11,20H,10,12H2,1-2H3

>  <PUBCHEM_IUPAC_INCHIKEY>  (85) 
IIHQWGVGNVVDIB-UHFFFAOYSA-N

>  <PUBCHEM_IUPAC_NAME>  (85) 
2-benzyl-4-[(dimethylamino)methyl]-1-benzofuran-5-ol

>  <PUBCHEM_IUPAC_OPENEYE_NAME>  (85) 
2-benzyl-4-[(dimethylamino)methyl]benzofuran-5-ol

>  <PUBCHEM_IUPAC_SYSTEMATIC_NAME>  (85) 
4-[(dimethylamino)methyl]-2-(phenylmethyl)-1-benzofuran-5-ol

>  <PUBCHEM_IUPAC_TRADITIONAL_NAME>  (85) 
2-benzyl-4-[(dimethylamino)methyl]benzofuran-5-ol

>  <PUBCHEM_MOLECULAR_FORMULA>  (85) 
C18H19NO2

>  <PUBCHEM_MOLECULAR_WEIGHT>  (85) 
281.34896

>  <PUBCHEM_MONOISOTOPIC_WEIGHT>  (85) 
281.141579

>  <PUBCHEM_OPENEYE_CAN_SMILES>  (85) 
CN(C)CC1=C(C=CC2=C1C=C(O2)CC3=CC=CC=C3)O

>  <PUBCHEM_OPENEYE_ISO_SMILES>  (85) 
CN(C)CC1=C(C=CC2=C1C=C(O2)CC3=CC=CC=C3)O

>  <PUBCHEM_TOTAL_CHARGE>  (85) 
0

>  <PUBCHEM_XLOGP3_AA>  (85) 
3.8

$$$$
Largest isolated from Written by BCL::WriteToMDL,2738173
     RDKit          2D

 39 41  0 39  0  0  0  0  0  0999 V2000
    6.5113   -3.1814    0.0000 Cl  0  0  0  0  0  0  0  0  0  0  0  0
    1.8248   -0.9372    0.0000 S   0  0  0  0  0  0  0  0  0  0  0  0
   -2.0520    3.7505    0.0000 O   0  0  0  0  0  0  0  0  0  0  0  0
    1.7094    0.5584    0.0000 O   0  0  0  0  0  0  0  0  0  0  0  0
    1.9402   -2.4327    0.0000 O   0  0  0  0  0  0  0  0  0  0  0  0
    0.3292   -1.0526    0.0000 N   0  0  0  0  0  0  0  0  0  0  0  0
   -3.2895    2.9028    0.0000 N   0  0  0  0  0  0  0  0  0  0  0  0
   -1.3662    1.4224    0.0000 C   0  0  0  0  0  0  0  0  0  0  0  0
   -0.5185    0.1849    0.0000 C   0  0  0  0  0  0  0  0  0  0  0  0
   -2.8656    1.4640    0.0000 C   0  0  0  0  0  0  0  0  0  0  0  0
   -0.8633    2.8356    0.0000 C   0  0  0  0  0  0  0  0  0  0  0  0
    3.3203   -0.8218    0.0000 C   0  0  0  0  0  0  0  0  0  0  0  0
   -3.7806    0.2753    0.0000 C   0  0  0  0  0  0  0  0  0  0  0  0
    0.5755    3.2594    0.0000 C   0  0  0  0  0  0  0  0  0  0  0  0
    4.1680   -2.0593    0.0000 C   0  0  0  0  0  0  0  0  0  0  0  0
    3.9682    0.5311    0.0000 C   0  0  0  0  0  0  0  0  0  0  0  0
   -5.2675    0.4734    0.0000 C   0  0  0  0  0  0  0  0  0  0  0  0
   -3.2087   -1.1114    0.0000 C   0  0  0  0  0  0  0  0  0  0  0  0
    5.6636   -1.9439    0.0000 C   0  0  0  0  0  0  0  0  0  0  0  0
    5.4637    0.6465    0.0000 C   0  0  0  0  0  0  0  0  0  0  0  0
   -6.1824   -0.7152    0.0000 C   0  0  0  0  0  0  0  0  0  0  0  0
   -4.1237   -2.3000    0.0000 C   0  0  0  0  0  0  0  0  0  0  0  0
    6.3114   -0.5910    0.0000 C   0  0  0  0  0  0  0  0  0  0  0  0
   -5.6105   -2.1019    0.0000 C   0  0  0  0  0  0  0  0  0  0  0  0
   -1.4297   -0.6188    0.0000 H   0  0  0  0  0  0  0  0  0  0  0  0
    0.8131    0.8755    0.0000 H   0  0  0  0  0  0  0  0  0  0  0  0
   -0.3186   -2.4055    0.0000 H   0  0  0  0  0  0  0  0  0  0  0  0
    0.1517    4.6983    0.0000 H   0  0  0  0  0  0  0  0  0  0  0  0
    1.1716    1.8829    0.0000 H   0  0  0  0  0  0  0  0  0  0  0  0
    2.0144    3.6832    0.0000 H   0  0  0  0  0  0  0  0  0  0  0  0
    3.5202   -3.4122    0.0000 H   0  0  0  0  0  0  0  0  0  0  0  0
    3.1204    1.7686    0.0000 H   0  0  0  0  0  0  0  0  0  0  0  0
   -5.8394    1.8601    0.0000 H   0  0  0  0  0  0  0  0  0  0  0  0
   -2.0329   -1.4174    0.0000 H   0  0  0  0  0  0  0  0  0  0  0  0
    6.1116    1.9994    0.0000 H   0  0  0  0  0  0  0  0  0  0  0  0
   -7.6693   -0.5172    0.0000 H   0  0  0  0  0  0  0  0  0  0  0  0
   -3.5518   -3.6867    0.0000 H   0  0  0  0  0  0  0  0  0  0  0  0
    7.8070   -0.4756    0.0000 H   0  0  0  0  0  0  0  0  0  0  0  0
   -6.5255   -3.2906    0.0000 H   0  0  0  0  0  0  0  0  0  0  0  0
  1 19  1  0
  2  4  2  0
  2  5  2  0
  2  6  1  0
  2 12  1  0
  3  7  1  0
  3 11  1  0
  6  9  1  0
  6 27  1  0
  7 10  2  0
  8  9  1  0
  8 10  1  0
  8 11  2  0
  9 25  1  0
  9 26  1  0
 10 13  1  0
 11 14  1  0
 12 15  2  0
 12 16  1  0
 13 17  2  0
 13 18  1  0
 14 28  1  0
 14 29  1  0
 14 30  1  0
 15 19  1  0
 15 31  1  0
 16 20  2  0
 16 32  1  0
 17 21  1  0
 17 33  1  0
 18 22  2  0
 18 34  1  0
 19 23  2  0
 20 23  1  0
 20 35  1  0
 21 24  2  0
 21 36  1  0
 22 24  1  0
 22 37  1  0
 23 38  1  0
 24 39  1  0
M  STY  8   1 DAT   2 DAT   3 DAT   4 DAT   5 DAT   6 DAT   7 DAT   8 DAT
M  STY  8   9 DAT  10 DAT  11 DAT  12 DAT  13 DAT  14 DAT  15 DAT  16 DAT
M  STY  8  17 DAT  18 DAT  19 DAT  20 DAT  21 DAT  22 DAT  23 DAT  24 DAT
M  STY  8  25 DAT  26 DAT  27 DAT  28 DAT  29 DAT  30 DAT  31 DAT  32 DAT
M  STY  7  33 DAT  34 DAT  35 DAT  36 DAT  37 DAT  38 DAT  39 DAT
M  SAL   1  1   1
M  SED   1 [#17&h0]
M  SAL   2  1   2
M  SED   2 [#16&h0]
M  SAL   3  1   3
M  SED   3 [#8&h0]
M  SAL   4  1   4
M  SED   4 [#8&h0]
M  SAL   5  1   5
M  SED   5 [#8&h0]
M  SAL   6  1   6
M  SED   6 [#7&h0]
M  SAL   7  1   7
M  SED   7 [#7&h0]
M  SAL   8  1   8
M  SED   8 [#6&h0]
M  SAL   9  1   9
M  SED   9 [#6&h0]
M  SAL  10  1  10
M  SED  10 [#6&h0]
M  SAL  11  1  11
M  SED  11 [#6&h0]
M  SAL  12  1  12
M  SED  12 [#6&h0]
M  SAL  13  1  13
M  SED  13 [#6&h0]
M  SAL  14  1  14
M  SED  14 [#6&h0]
M  SAL  15  1  15
M  SED  15 [#6&h0]
M  SAL  16  1  16
M  SED  16 [#6&h0]
M  SAL  17  1  17
M  SED  17 [#6&h0]
M  SAL  18  1  18
M  SED  18 [#6&h0]
M  SAL  19  1  19
M  SED  19 [#6&h0]
M  SAL  20  1  20
M  SED  20 [#6&h0]
M  SAL  21  1  21
M  SED  21 [#6&h0]
M  SAL  22  1  22
M  SED  22 [#6&h0]
M  SAL  23  1  23
M  SED  23 [#6&h0]
M  SAL  24  1  24
M  SED  24 [#6&h0]
M  SAL  25  1  25
M  SED  25 [#1&h0]
M  SAL  26  1  26
M  SED  26 [#1&h0]
M  SAL  27  1  27
M  SED  27 [#1&h0]
M  SAL  28  1  28
M  SED  28 [#1&h0]
M  SAL  29  1  29
M  SED  29 [#1&h0]
M  SAL  30  1  30
M  SED  30 [#1&h0]
M  SAL  31  1  31
M  SED  31 [#1&h0]
M  SAL  32  1  32
M  SED  32 [#1&h0]
M  SAL  33  1  33
M  SED  33 [#1&h0]
M  SAL  34  1  34
M  SED  34 [#1&h0]
M  SAL  35  1  35
M  SED  35 [#1&h0]
M  SAL  36  1  36
M  SED  36 [#1&h0]
M  SAL  37  1  37
M  SED  37 [#1&h0]
M  SAL  38  1  38
M  SED  38 [#1&h0]
M  SAL  39  1  39
M  SED  39 [#1&h0]
M  END
>  <Activity>  (86) 
0.01

>  <Mapped(file=2032.csv.activities,property=Cached(PUBCHEM_COMPOUND_CID))>  (86) 
100

>  <MatchIndices>  (86) 
175 

>  <PUBCHEM_ATOM_DEF_STEREO_COUNT>  (86) 
0

>  <PUBCHEM_ATOM_UDEF_STEREO_COUNT>  (86) 
0

>  <PUBCHEM_BONDANNOTATIONS>  (86) 
12  15  8
12  16  8
13  17  8
13  18  8
15  19  8
16  20  8
17  21  8
18  22  8
19  23  8
20  23  8
21  24  8
22  24  8
3  11  8
3  7  8
7  10  8
8  10  8
8  11  8

>  <PUBCHEM_BOND_DEF_STEREO_COUNT>  (86) 
0

>  <PUBCHEM_BOND_UDEF_STEREO_COUNT>  (86) 
0

>  <PUBCHEM_CACTVS_COMPLEXITY>  (86) 
505

>  <PUBCHEM_CACTVS_HBOND_ACCEPTOR>  (86) 
5

>  <PUBCHEM_CACTVS_HBOND_DONOR>  (86) 
1

>  <PUBCHEM_CACTVS_ROTATABLE_BOND>  (86) 
5

>  <PUBCHEM_CACTVS_SUBSKEYS>  (86) 
AAADccB7MABEAAAAAAAAAAAAAAAAAWAAAAAwYAAAAAAAAAAB0AAAHgYUQAAADA7B3iQyhZBQAAKpA6RyQnDCABAkJQAomLkkTtoIJrqB05OAMYBmgBgIyUeYyOCOAAAAABAAAAAAAAAAIAAAAAAAAAAAAA==

>  <PUBCHEM_CACTVS_TAUTO_COUNT>  (86) 
1

>  <PUBCHEM_CACTVS_TPSA>  (86) 
80.6

>  <PUBCHEM_COMPONENT_COUNT>  (86) 
1

>  <PUBCHEM_COMPOUND_CANONICALIZED>  (86) 
1

>  <PUBCHEM_COMPOUND_CID>  (86) 
2738173

>  <PUBCHEM_COORDINATE_TYPE>  (86) 
1
5
255

>  <PUBCHEM_EXACT_MASS>  (86) 
362.049191

>  <PUBCHEM_HEAVY_ATOM_COUNT>  (86) 
24

>  <PUBCHEM_ISOTOPIC_ATOM_COUNT>  (86) 
0

>  <PUBCHEM_IUPAC_CAS_NAME>  (86) 
3-chloro-N-[(5-methyl-3-phenyl-4-isoxazolyl)methyl]benzenesulfonamide

>  <PUBCHEM_IUPAC_INCHI>  (86) 
InChI=1S/C17H15ClN2O3S/c1-12-16(17(20-23-12)13-6-3-2-4-7-13)11-19-24(21,22)15-9-5-8-14(18)10-15/h2-10,19H,11H2,1H3

>  <PUBCHEM_IUPAC_INCHIKEY>  (86) 
ASTDUHHRCLLLMU-UHFFFAOYSA-N

>  <PUBCHEM_IUPAC_NAME>  (86) 
3-chloro-N-[(5-methyl-3-phenyl-1,2-oxazol-4-yl)methyl]benzenesulfonamide

>  <PUBCHEM_IUPAC_OPENEYE_NAME>  (86) 
3-chloro-N-[(5-methyl-3-phenyl-isoxazol-4-yl)methyl]benzenesulfonamide

>  <PUBCHEM_IUPAC_SYSTEMATIC_NAME>  (86) 
3-chloranyl-N-[(5-methyl-3-phenyl-1,2-oxazol-4-yl)methyl]benzenesulfonamide

>  <PUBCHEM_IUPAC_TRADITIONAL_NAME>  (86) 
3-chloro-N-[(5-methyl-3-phenyl-isoxazol-4-yl)methyl]benzenesulfonamide

>  <PUBCHEM_MOLECULAR_FORMULA>  (86) 
C17H15ClN2O3S

>  <PUBCHEM_MOLECULAR_WEIGHT>  (86) 
362.8306

>  <PUBCHEM_MONOISOTOPIC_WEIGHT>  (86) 
362.049191

>  <PUBCHEM_OPENEYE_CAN_SMILES>  (86) 
CC1=C(C(=NO1)C2=CC=CC=C2)CNS(=O)(=O)C3=CC(=CC=C3)Cl

>  <PUBCHEM_OPENEYE_ISO_SMILES>  (86) 
CC1=C(C(=NO1)C2=CC=CC=C2)CNS(=O)(=O)C3=CC(=CC=C3)Cl

>  <PUBCHEM_TOTAL_CHARGE>  (86) 
0

>  <PUBCHEM_XLOGP3_AA>  (86) 
3.5

$$$$
Largest isolated from Written by BCL::WriteToMDL,2997969
     RDKit          2D

 46 48  0 46  0  0  0  0  0  0999 V2000
    1.9208    1.0944    0.0000 S   0  0  0  0  0  0  0  0  0  0  0  0
  -10.6757   -1.2672    0.0000 F   0  0  0  0  0  0  0  0  0  0  0  0
   -1.3084   -1.2126    0.0000 O   0  0  0  0  0  0  0  0  0  0  0  0
    4.4829    0.3323    0.0000 N   0  0  0  0  0  0  0  0  0  0  0  0
    2.8103   -1.4263    0.0000 N   0  0  0  0  0  0  0  0  0  0  0  0
   -2.0435    1.2793    0.0000 N   0  0  0  0  0  0  0  0  0  0  0  0
    7.0720    5.7450    0.0000 N   0  0  0  0  0  0  0  0  0  0  0  0
    5.1972   -0.9867    0.0000 C   0  0  0  0  0  0  0  0  0  0  0  0
    5.1302    1.6855    0.0000 C   0  0  0  0  0  0  0  0  0  0  0  0
    4.1634   -2.0736    0.0000 C   0  0  0  0  0  0  0  0  0  0  0  0
    3.0077    0.0606    0.0000 C   0  0  0  0  0  0  0  0  0  0  0  0
    6.6553   -1.3385    0.0000 C   0  0  0  0  0  0  0  0  0  0  0  0
   -4.9209    0.4304    0.0000 C   0  0  0  0  0  0  0  0  0  0  0  0
    5.7775    3.0387    0.0000 C   0  0  0  0  0  0  0  0  0  0  0  0
   -3.4822    0.8549    0.0000 C   0  0  0  0  0  0  0  0  0  0  0  0
    4.5878   -3.5123    0.0000 C   0  0  0  0  0  0  0  0  0  0  0  0
    0.4821    0.6700    0.0000 C   0  0  0  0  0  0  0  0  0  0  0  0
   -6.3596    0.0060    0.0000 C   0  0  0  0  0  0  0  0  0  0  0  0
    7.0798   -2.7772    0.0000 C   0  0  0  0  0  0  0  0  0  0  0  0
    6.0460   -3.8641    0.0000 C   0  0  0  0  0  0  0  0  0  0  0  0
   -0.9566    0.2455    0.0000 C   0  0  0  0  0  0  0  0  0  0  0  0
   -6.7114   -1.4521    0.0000 C   0  0  0  0  0  0  0  0  0  0  0  0
   -7.4465    1.0398    0.0000 C   0  0  0  0  0  0  0  0  0  0  0  0
   -8.1501   -1.8766    0.0000 C   0  0  0  0  0  0  0  0  0  0  0  0
   -8.8852    0.6154    0.0000 C   0  0  0  0  0  0  0  0  0  0  0  0
    6.4247    4.3918    0.0000 C   0  0  0  0  0  0  0  0  0  0  0  0
   -9.2370   -0.8428    0.0000 C   0  0  0  0  0  0  0  0  0  0  0  0
    3.7770    2.3328    0.0000 H   0  0  0  0  0  0  0  0  0  0  0  0
    6.4833    1.0382    0.0000 H   0  0  0  0  0  0  0  0  0  0  0  0
    7.6891   -0.2516    0.0000 H   0  0  0  0  0  0  0  0  0  0  0  0
   -5.3453    1.8692    0.0000 H   0  0  0  0  0  0  0  0  0  0  0  0
   -4.4965   -1.0083    0.0000 H   0  0  0  0  0  0  0  0  0  0  0  0
    4.4243    3.6859    0.0000 H   0  0  0  0  0  0  0  0  0  0  0  0
    7.1306    2.3914    0.0000 H   0  0  0  0  0  0  0  0  0  0  0  0
   -3.9066    2.2936    0.0000 H   0  0  0  0  0  0  0  0  0  0  0  0
   -3.0578   -0.5838    0.0000 H   0  0  0  0  0  0  0  0  0  0  0  0
    3.5541   -4.5992    0.0000 H   0  0  0  0  0  0  0  0  0  0  0  0
    0.9065   -0.7687    0.0000 H   0  0  0  0  0  0  0  0  0  0  0  0
    0.0577    2.1087    0.0000 H   0  0  0  0  0  0  0  0  0  0  0  0
    8.5379   -3.1290    0.0000 H   0  0  0  0  0  0  0  0  0  0  0  0
    6.4704   -5.3028    0.0000 H   0  0  0  0  0  0  0  0  0  0  0  0
   -1.6917    2.7375    0.0000 H   0  0  0  0  0  0  0  0  0  0  0  0
   -5.6245   -2.4859    0.0000 H   0  0  0  0  0  0  0  0  0  0  0  0
   -7.0947    2.4979    0.0000 H   0  0  0  0  0  0  0  0  0  0  0  0
   -8.5019   -3.3347    0.0000 H   0  0  0  0  0  0  0  0  0  0  0  0
   -9.9721    1.6491    0.0000 H   0  0  0  0  0  0  0  0  0  0  0  0
  1 11  1  0
  1 17  1  0
  2 27  1  0
  3 21  2  0
  4  8  1  0
  4  9  1  0
  4 11  1  0
  5 10  1  0
  5 11  2  0
  6 15  1  0
  6 21  1  0
  6 42  1  0
  7 26  3  0
  8 10  2  0
  8 12  1  0
  9 14  1  0
  9 28  1  0
  9 29  1  0
 10 16  1  0
 12 19  2  0
 12 30  1  0
 13 15  1  0
 13 18  1  0
 13 31  1  0
 13 32  1  0
 14 26  1  0
 14 33  1  0
 14 34  1  0
 15 35  1  0
 15 36  1  0
 16 20  2  0
 16 37  1  0
 17 21  1  0
 17 38  1  0
 17 39  1  0
 18 22  2  0
 18 23  1  0
 19 20  1  0
 19 40  1  0
 20 41  1  0
 22 24  1  0
 22 43  1  0
 23 25  2  0
 23 44  1  0
 24 27  2  0
 24 45  1  0
 25 27  1  0
 25 46  1  0
M  STY  8   1 DAT   2 DAT   3 DAT   4 DAT   5 DAT   6 DAT   7 DAT   8 DAT
M  STY  8   9 DAT  10 DAT  11 DAT  12 DAT  13 DAT  14 DAT  15 DAT  16 DAT
M  STY  8  17 DAT  18 DAT  19 DAT  20 DAT  21 DAT  22 DAT  23 DAT  24 DAT
M  STY  8  25 DAT  26 DAT  27 DAT  28 DAT  29 DAT  30 DAT  31 DAT  32 DAT
M  STY  8  33 DAT  34 DAT  35 DAT  36 DAT  37 DAT  38 DAT  39 DAT  40 DAT
M  STY  6  41 DAT  42 DAT  43 DAT  44 DAT  45 DAT  46 DAT
M  SAL   1  1   1
M  SED   1 [#16&h0]
M  SAL   2  1   2
M  SED   2 [#9&h0]
M  SAL   3  1   3
M  SED   3 [#8&h0]
M  SAL   4  1   4
M  SED   4 [#7&h0]
M  SAL   5  1   5
M  SED   5 [#7&h0]
M  SAL   6  1   6
M  SED   6 [#7&h0]
M  SAL   7  1   7
M  SED   7 [#7&h0]
M  SAL   8  1   8
M  SED   8 [#6&h0]
M  SAL   9  1   9
M  SED   9 [#6&h0]
M  SAL  10  1  10
M  SED  10 [#6&h0]
M  SAL  11  1  11
M  SED  11 [#6&h0]
M  SAL  12  1  12
M  SED  12 [#6&h0]
M  SAL  13  1  13
M  SED  13 [#6&h0]
M  SAL  14  1  14
M  SED  14 [#6&h0]
M  SAL  15  1  15
M  SED  15 [#6&h0]
M  SAL  16  1  16
M  SED  16 [#6&h0]
M  SAL  17  1  17
M  SED  17 [#6&h0]
M  SAL  18  1  18
M  SED  18 [#6&h0]
M  SAL  19  1  19
M  SED  19 [#6&h0]
M  SAL  20  1  20
M  SED  20 [#6&h0]
M  SAL  21  1  21
M  SED  21 [#6&h0]
M  SAL  22  1  22
M  SED  22 [#6&h0]
M  SAL  23  1  23
M  SED  23 [#6&h0]
M  SAL  24  1  24
M  SED  24 [#6&h0]
M  SAL  25  1  25
M  SED  25 [#6&h0]
M  SAL  26  1  26
M  SED  26 [#6&h0]
M  SAL  27  1  27
M  SED  27 [#6&h0]
M  SAL  28  1  28
M  SED  28 [#1&h0]
M  SAL  29  1  29
M  SED  29 [#1&h0]
M  SAL  30  1  30
M  SED  30 [#1&h0]
M  SAL  31  1  31
M  SED  31 [#1&h0]
M  SAL  32  1  32
M  SED  32 [#1&h0]
M  SAL  33  1  33
M  SED  33 [#1&h0]
M  SAL  34  1  34
M  SED  34 [#1&h0]
M  SAL  35  1  35
M  SED  35 [#1&h0]
M  SAL  36  1  36
M  SED  36 [#1&h0]
M  SAL  37  1  37
M  SED  37 [#1&h0]
M  SAL  38  1  38
M  SED  38 [#1&h0]
M  SAL  39  1  39
M  SED  39 [#1&h0]
M  SAL  40  1  40
M  SED  40 [#1&h0]
M  SAL  41  1  41
M  SED  41 [#1&h0]
M  SAL  42  1  42
M  SED  42 [#1&h0]
M  SAL  43  1  43
M  SED  43 [#1&h0]
M  SAL  44  1  44
M  SED  44 [#1&h0]
M  SAL  45  1  45
M  SED  45 [#1&h0]
M  SAL  46  1  46
M  SED  46 [#1&h0]
M  END
>  <Activity>  (87) 
0.01

>  <Mapped(file=2032.csv.activities,property=Cached(PUBCHEM_COMPOUND_CID))>  (87) 
100

>  <MatchIndices>  (87) 
196 

>  <PUBCHEM_ATOM_DEF_STEREO_COUNT>  (87) 
0

>  <PUBCHEM_ATOM_UDEF_STEREO_COUNT>  (87) 
0

>  <PUBCHEM_BONDANNOTATIONS>  (87) 
10  16  8
12  19  8
16  20  8
18  22  8
18  23  8
19  20  8
22  24  8
23  25  8
24  27  8
25  27  8
4  11  8
4  8  8
5  10  8
5  11  8
8  10  8
8  12  8

>  <PUBCHEM_BOND_DEF_STEREO_COUNT>  (87) 
0

>  <PUBCHEM_BOND_UDEF_STEREO_COUNT>  (87) 
0

>  <PUBCHEM_CACTVS_COMPLEXITY>  (87) 
531

>  <PUBCHEM_CACTVS_HBOND_ACCEPTOR>  (87) 
4

>  <PUBCHEM_CACTVS_HBOND_DONOR>  (87) 
1

>  <PUBCHEM_CACTVS_ROTATABLE_BOND>  (87) 
8

>  <PUBCHEM_CACTVS_SUBSKEYS>  (87) 
AAADceB7oQBAAAAAAAAAAAAAAAAAAWAAAAAwYAAAAAAAAFgB9AAAHwQQAAAADAjF3gyx0LfMEAi4ByVydACC0C1hErAJ2KA4dJiI6KLAmZGUIAholgLIyCcQgIAOAAAAAAAAACAAAAAAAAAAQAAAAAAAAA==

>  <PUBCHEM_CACTVS_TAUTO_COUNT>  (87) 
2

>  <PUBCHEM_CACTVS_TPSA>  (87) 
96

>  <PUBCHEM_COMPONENT_COUNT>  (87) 
1

>  <PUBCHEM_COMPOUND_CANONICALIZED>  (87) 
1

>  <PUBCHEM_COMPOUND_CID>  (87) 
2997969

>  <PUBCHEM_COORDINATE_TYPE>  (87) 
1
5
255

>  <PUBCHEM_EXACT_MASS>  (87) 
382.12636

>  <PUBCHEM_HEAVY_ATOM_COUNT>  (87) 
27

>  <PUBCHEM_ISOTOPIC_ATOM_COUNT>  (87) 
0

>  <PUBCHEM_IUPAC_CAS_NAME>  (87) 
2-[[1-(2-cyanoethyl)-2-benzimidazolyl]thio]-N-[2-(4-fluorophenyl)ethyl]acetamide

>  <PUBCHEM_IUPAC_INCHI>  (87) 
InChI=1S/C20H19FN4OS/c21-16-8-6-15(7-9-16)10-12-23-19(26)14-27-20-24-17-4-1-2-5-18(17)25(20)13-3-11-22/h1-2,4-9H,3,10,12-14H2,(H,23,26)

>  <PUBCHEM_IUPAC_INCHIKEY>  (87) 
BIUOXECWEBTUEK-UHFFFAOYSA-N

>  <PUBCHEM_IUPAC_NAME>  (87) 
2-[1-(2-cyanoethyl)benzimidazol-2-yl]sulfanyl-N-[2-(4-fluorophenyl)ethyl]acetamide

>  <PUBCHEM_IUPAC_OPENEYE_NAME>  (87) 
2-[1-(2-cyanoethyl)benzimidazol-2-yl]sulfanyl-N-[2-(4-fluorophenyl)ethyl]acetamide

>  <PUBCHEM_IUPAC_SYSTEMATIC_NAME>  (87) 
2-[1-(2-cyanoethyl)benzimidazol-2-yl]sulfanyl-N-[2-(4-fluorophenyl)ethyl]ethanamide

>  <PUBCHEM_IUPAC_TRADITIONAL_NAME>  (87) 
2-[[1-(2-cyanoethyl)benzimidazol-2-yl]thio]-N-[2-(4-fluorophenyl)ethyl]acetamide

>  <PUBCHEM_MOLECULAR_FORMULA>  (87) 
C20H19FN4OS

>  <PUBCHEM_MOLECULAR_WEIGHT>  (87) 
382.454463

>  <PUBCHEM_MONOISOTOPIC_WEIGHT>  (87) 
382.12636

>  <PUBCHEM_OPENEYE_CAN_SMILES>  (87) 
C1=CC=C2C(=C1)N=C(N2CCC#N)SCC(=O)NCCC3=CC=C(C=C3)F

>  <PUBCHEM_OPENEYE_ISO_SMILES>  (87) 
C1=CC=C2C(=C1)N=C(N2CCC#N)SCC(=O)NCCC3=CC=C(C=C3)F

>  <PUBCHEM_TOTAL_CHARGE>  (87) 
0

>  <PUBCHEM_XLOGP3_AA>  (87) 
3.3

$$$$
Largest isolated from Written by BCL::WriteToMDL,5390025
     RDKit          2D

 39 41  0 39  0  0  0  0  0  0999 V2000
    0.2313   -0.3455    0.0000 O   0  0  0  0  0  0  0  0  0  0  0  0
    1.4912   -1.7924    0.0000 O   0  0  0  0  0  0  0  0  0  0  0  0
   -5.7642   -0.1142    0.0000 O   0  0  0  0  0  0  0  0  0  0  0  0
    6.3675   -3.5874    0.0000 O   0  0  0  0  0  0  0  0  0  0  0  0
    2.8957    2.4770    0.0000 N   0  0  0  0  0  0  0  0  0  0  0  0
    1.6266    3.2765    0.0000 N   0  0  0  0  0  0  0  0  0  0  0  0
    2.5275    1.0229    0.0000 C   0  0  0  0  0  0  0  0  0  0  0  0
    1.0308    0.9237    0.0000 C   0  0  0  0  0  0  0  0  0  0  0  0
    0.4740    2.3165    0.0000 C   0  0  0  0  0  0  0  0  0  0  0  0
    3.4875   -0.1297    0.0000 C   0  0  0  0  0  0  0  0  0  0  0  0
   -0.9801    2.6847    0.0000 C   0  0  0  0  0  0  0  0  0  0  0  0
    2.9693   -1.5373    0.0000 C   0  0  0  0  0  0  0  0  0  0  0  0
    4.9657    0.1254    0.0000 C   0  0  0  0  0  0  0  0  0  0  0  0
   -1.2676   -0.2876    0.0000 C   0  0  0  0  0  0  0  0  0  0  0  0
    3.9293   -2.6899    0.0000 C   0  0  0  0  0  0  0  0  0  0  0  0
    5.9256   -1.0272    0.0000 C   0  0  0  0  0  0  0  0  0  0  0  0
    5.4075   -2.4348    0.0000 C   0  0  0  0  0  0  0  0  0  0  0  0
   -2.0671   -1.5568    0.0000 C   0  0  0  0  0  0  0  0  0  0  0  0
   -1.9670    1.0393    0.0000 C   0  0  0  0  0  0  0  0  0  0  0  0
   -3.5660   -1.4990    0.0000 C   0  0  0  0  0  0  0  0  0  0  0  0
   -3.4658    1.0972    0.0000 C   0  0  0  0  0  0  0  0  0  0  0  0
   -4.2654   -0.1720    0.0000 C   0  0  0  0  0  0  0  0  0  0  0  0
   -6.5638   -1.3834    0.0000 C   0  0  0  0  0  0  0  0  0  0  0  0
    4.2885    3.0338    0.0000 H   0  0  0  0  0  0  0  0  0  0  0  0
    1.5274    4.7732    0.0000 H   0  0  0  0  0  0  0  0  0  0  0  0
   -0.6119    4.1388    0.0000 H   0  0  0  0  0  0  0  0  0  0  0  0
   -1.3570    1.9823    0.0000 H   0  0  0  0  0  0  0  0  0  0  0  0
   -2.4342    3.0529    0.0000 H   0  0  0  0  0  0  0  0  0  0  0  0
    5.4838    1.5331    0.0000 H   0  0  0  0  0  0  0  0  0  0  0  0
    3.4112   -4.0976    0.0000 H   0  0  0  0  0  0  0  0  0  0  0  0
    7.4038   -0.7721    0.0000 H   0  0  0  0  0  0  0  0  0  0  0  0
   -1.3677   -2.8838    0.0000 H   0  0  0  0  0  0  0  0  0  0  0  0
   -1.7179    1.7966    0.0000 H   0  0  0  0  0  0  0  0  0  0  0  0
   -4.3655   -2.7682    0.0000 H   0  0  0  0  0  0  0  0  0  0  0  0
   -4.1652    2.4241    0.0000 H   0  0  0  0  0  0  0  0  0  0  0  0
    0.9730   -3.2001    0.0000 H   0  0  0  0  0  0  0  0  0  0  0  0
   -7.8329   -0.5838    0.0000 H   0  0  0  0  0  0  0  0  0  0  0  0
   -5.2946   -2.1829    0.0000 H   0  0  0  0  0  0  0  0  0  0  0  0
   -7.3633   -2.6525    0.0000 H   0  0  0  0  0  0  0  0  0  0  0  0
  1  8  1  0
  1 14  1  0
  2 12  1  0
  2 36  1  0
  3 22  1  0
  3 23  1  0
  4 17  2  0
  5  6  1  0
  5  7  1  0
  5 24  1  0
  6  9  1  0
  6 25  1  0
  7  8  1  0
  7 10  2  0
  8  9  2  0
  9 11  1  0
 10 12  1  0
 10 13  1  0
 11 26  1  0
 11 27  1  0
 11 28  1  0
 12 15  2  0
 13 16  2  0
 13 29  1  0
 14 18  2  0
 14 19  1  0
 15 17  1  0
 15 30  1  0
 16 17  1  0
 16 31  1  0
 18 20  1  0
 18 32  1  0
 19 21  2  0
 19 33  1  0
 20 22  2  0
 20 34  1  0
 21 22  1  0
 21 35  1  0
 23 37  1  0
 23 38  1  0
 23 39  1  0
M  STY  8   1 DAT   2 DAT   3 DAT   4 DAT   5 DAT   6 DAT   7 DAT   8 DAT
M  STY  8   9 DAT  10 DAT  11 DAT  12 DAT  13 DAT  14 DAT  15 DAT  16 DAT
M  STY  8  17 DAT  18 DAT  19 DAT  20 DAT  21 DAT  22 DAT  23 DAT  24 DAT
M  STY  8  25 DAT  26 DAT  27 DAT  28 DAT  29 DAT  30 DAT  31 DAT  32 DAT
M  STY  7  33 DAT  34 DAT  35 DAT  36 DAT  37 DAT  38 DAT  39 DAT
M  SAL   1  1   1
M  SED   1 [#8&h0]
M  SAL   2  1   2
M  SED   2 [#8&h0]
M  SAL   3  1   3
M  SED   3 [#8&h0]
M  SAL   4  1   4
M  SED   4 [#8&h0]
M  SAL   5  1   5
M  SED   5 [#7&h0]
M  SAL   6  1   6
M  SED   6 [#7&h0]
M  SAL   7  1   7
M  SED   7 [#6&h0]
M  SAL   8  1   8
M  SED   8 [#6&h0]
M  SAL   9  1   9
M  SED   9 [#6&h0]
M  SAL  10  1  10
M  SED  10 [#6&h0]
M  SAL  11  1  11
M  SED  11 [#6&h0]
M  SAL  12  1  12
M  SED  12 [#6&h0]
M  SAL  13  1  13
M  SED  13 [#6&h0]
M  SAL  14  1  14
M  SED  14 [#6&h0]
M  SAL  15  1  15
M  SED  15 [#6&h0]
M  SAL  16  1  16
M  SED  16 [#6&h0]
M  SAL  17  1  17
M  SED  17 [#6&h0]
M  SAL  18  1  18
M  SED  18 [#6&h0]
M  SAL  19  1  19
M  SED  19 [#6&h0]
M  SAL  20  1  20
M  SED  20 [#6&h0]
M  SAL  21  1  21
M  SED  21 [#6&h0]
M  SAL  22  1  22
M  SED  22 [#6&h0]
M  SAL  23  1  23
M  SED  23 [#6&h0]
M  SAL  24  1  24
M  SED  24 [#1&h0]
M  SAL  25  1  25
M  SED  25 [#1&h0]
M  SAL  26  1  26
M  SED  26 [#1&h0]
M  SAL  27  1  27
M  SED  27 [#1&h0]
M  SAL  28  1  28
M  SED  28 [#1&h0]
M  SAL  29  1  29
M  SED  29 [#1&h0]
M  SAL  30  1  30
M  SED  30 [#1&h0]
M  SAL  31  1  31
M  SED  31 [#1&h0]
M  SAL  32  1  32
M  SED  32 [#1&h0]
M  SAL  33  1  33
M  SED  33 [#1&h0]
M  SAL  34  1  34
M  SED  34 [#1&h0]
M  SAL  35  1  35
M  SED  35 [#1&h0]
M  SAL  36  1  36
M  SED  36 [#1&h0]
M  SAL  37  1  37
M  SED  37 [#1&h0]
M  SAL  38  1  38
M  SED  38 [#1&h0]
M  SAL  39  1  39
M  SED  39 [#1&h0]
M  END
>  <Activity>  (88) 
0.01

>  <Mapped(file=2032.csv.activities,property=Cached(PUBCHEM_COMPOUND_CID))>  (88) 
100

>  <MatchIndices>  (88) 
224 

>  <PUBCHEM_ATOM_DEF_STEREO_COUNT>  (88) 
0

>  <PUBCHEM_ATOM_UDEF_STEREO_COUNT>  (88) 
0

>  <PUBCHEM_BONDANNOTATIONS>  (88) 
14  18  8
14  19  8
18  20  8
19  21  8
20  22  8
21  22  8

>  <PUBCHEM_BOND_DEF_STEREO_COUNT>  (88) 
1

>  <PUBCHEM_BOND_UDEF_STEREO_COUNT>  (88) 
0

>  <PUBCHEM_CACTVS_COMPLEXITY>  (88) 
623

>  <PUBCHEM_CACTVS_HBOND_ACCEPTOR>  (88) 
6

>  <PUBCHEM_CACTVS_HBOND_DONOR>  (88) 
3

>  <PUBCHEM_CACTVS_ROTATABLE_BOND>  (88) 
3

>  <PUBCHEM_CACTVS_SUBSKEYS>  (88) 
AAADceB7OAAAAAAAAAAAAAAAAAAAAQAAAAAwQAAAAAAAAAABAAAAHgAYCAAADAyBkAIyBoBiBgCIAqRSQACCCAAgIAIYqAAGCMgOJiKEMRqDeCCk0BEIuYfAQAAAAQAAAAAAAAACAAAAAAAAAAAAAAAAAA==

>  <PUBCHEM_CACTVS_TAUTO_COUNT>  (88) 
43

>  <PUBCHEM_CACTVS_TPSA>  (88) 
79.8

>  <PUBCHEM_COMPONENT_COUNT>  (88) 
1

>  <PUBCHEM_COMPOUND_CANONICALIZED>  (88) 
1

>  <PUBCHEM_COMPOUND_CID>  (88) 
5390025

>  <PUBCHEM_COORDINATE_TYPE>  (88) 
1
5
255

>  <PUBCHEM_EXACT_MASS>  (88) 
312.111007

>  <PUBCHEM_HEAVY_ATOM_COUNT>  (88) 
23

>  <PUBCHEM_ISOTOPIC_ATOM_COUNT>  (88) 
0

>  <PUBCHEM_IUPAC_CAS_NAME>  (88) 
(4E)-3-hydroxy-4-[4-(4-methoxyphenoxy)-5-methyl-1,2-dihydropyrazol-3-ylidene]-1-cyclohexa-2,5-dienone

>  <PUBCHEM_IUPAC_INCHI>  (88) 
InChI=1S/C17H16N2O4/c1-10-17(23-13-6-4-12(22-2)5-7-13)16(19-18-10)14-8-3-11(20)9-15(14)21/h3-9,18-19,21H,1-2H3/b16-14+

>  <PUBCHEM_IUPAC_INCHIKEY>  (88) 
IUUOPOOPFAXSCF-JQIJEIRASA-N

>  <PUBCHEM_IUPAC_NAME>  (88) 
(4E)-3-hydroxy-4-[4-(4-methoxyphenoxy)-5-methyl-1,2-dihydropyrazol-3-ylidene]cyclohexa-2,5-dien-1-one

>  <PUBCHEM_IUPAC_OPENEYE_NAME>  (88) 
(4E)-3-hydroxy-4-[4-(4-methoxyphenoxy)-5-methyl-1,2-dihydropyrazol-3-ylidene]cyclohexa-2,5-dien-1-one

>  <PUBCHEM_IUPAC_SYSTEMATIC_NAME>  (88) 
(4E)-4-[4-(4-methoxyphenoxy)-5-methyl-1,2-dihydropyrazol-3-ylidene]-3-oxidanyl-cyclohexa-2,5-dien-1-one

>  <PUBCHEM_IUPAC_TRADITIONAL_NAME>  (88) 
(4E)-3-hydroxy-4-[4-(4-methoxyphenoxy)-5-methyl-3-pyrazolin-3-ylidene]cyclohexa-2,5-dien-1-one

>  <PUBCHEM_MOLECULAR_FORMULA>  (88) 
C17H16N2O4

>  <PUBCHEM_MOLECULAR_WEIGHT>  (88) 
312.31994

>  <PUBCHEM_MONOISOTOPIC_WEIGHT>  (88) 
312.111007

>  <PUBCHEM_OPENEYE_CAN_SMILES>  (88) 
CC1=C(C(=C2C=CC(=O)C=C2O)NN1)OC3=CC=C(C=C3)OC

>  <PUBCHEM_OPENEYE_ISO_SMILES>  (88) 
CC1=C(/C(=C\2/C=CC(=O)C=C2O)/NN1)OC3=CC=C(C=C3)OC

>  <PUBCHEM_TOTAL_CHARGE>  (88) 
0

>  <PUBCHEM_XLOGP3_AA>  (88) 
2.3

$$$$
Largest isolated from Written by BCL::WriteToMDL,2935293
     RDKit          2D

 49 50  0 49  0  0  0  0  0  0999 V2000
   -4.0243   -2.3202    0.0000 O   0  0  0  0  0  0  0  0  0  0  0  0
    3.4678   -1.9762    0.0000 N   0  0  0  0  0  0  0  0  0  0  0  0
    0.4709   -2.1138    0.0000 C   0  0  0  0  0  0  0  0  0  0  0  0
    4.1574   -0.6442    0.0000 C   0  0  0  0  0  0  0  0  0  0  0  0
    1.9694   -2.0450    0.0000 C   0  0  0  0  0  0  0  0  0  0  0  0
   -1.0275   -2.1826    0.0000 C   0  0  0  0  0  0  0  0  0  0  0  0
    4.8470    0.6879    0.0000 C   0  0  0  0  0  0  0  0  0  0  0  0
   -2.5259   -2.2514    0.0000 C   0  0  0  0  0  0  0  0  0  0  0  0
    5.4895   -1.3338    0.0000 C   0  0  0  0  0  0  0  0  0  0  0  0
    4.0383    1.9512    0.0000 C   0  0  0  0  0  0  0  0  0  0  0  0
    6.3455    0.7567    0.0000 C   0  0  0  0  0  0  0  0  0  0  0  0
   -4.8331   -1.0569    0.0000 C   0  0  0  0  0  0  0  0  0  0  0  0
   -4.1435    0.2751    0.0000 C   0  0  0  0  0  0  0  0  0  0  0  0
    4.7279    3.2833    0.0000 C   0  0  0  0  0  0  0  0  0  0  0  0
    7.0351    2.0888    0.0000 C   0  0  0  0  0  0  0  0  0  0  0  0
   -6.3315   -1.1257    0.0000 C   0  0  0  0  0  0  0  0  0  0  0  0
   -4.9523    1.5384    0.0000 C   0  0  0  0  0  0  0  0  0  0  0  0
   -6.4507    1.4696    0.0000 C   0  0  0  0  0  0  0  0  0  0  0  0
    6.2263    3.3520    0.0000 C   0  0  0  0  0  0  0  0  0  0  0  0
   -7.1403    0.1375    0.0000 C   0  0  0  0  0  0  0  0  0  0  0  0
   -2.6451    0.3439    0.0000 C   0  0  0  0  0  0  0  0  0  0  0  0
   -7.2595    2.7329    0.0000 C   0  0  0  0  0  0  0  0  0  0  0  0
    0.5397   -3.6122    0.0000 H   0  0  0  0  0  0  0  0  0  0  0  0
    0.4021   -0.6154    0.0000 H   0  0  0  0  0  0  0  0  0  0  0  0
    2.8253    0.0455    0.0000 H   0  0  0  0  0  0  0  0  0  0  0  0
    2.0382   -3.5434    0.0000 H   0  0  0  0  0  0  0  0  0  0  0  0
    1.9006   -0.5466    0.0000 H   0  0  0  0  0  0  0  0  0  0  0  0
   -0.9587   -3.6810    0.0000 H   0  0  0  0  0  0  0  0  0  0  0  0
   -1.0963   -0.6842    0.0000 H   0  0  0  0  0  0  0  0  0  0  0  0
    4.1166   -3.3287    0.0000 H   0  0  0  0  0  0  0  0  0  0  0  0
   -2.4651   -1.4566    0.0000 H   0  0  0  0  0  0  0  0  0  0  0  0
   -2.4571   -3.7498    0.0000 H   0  0  0  0  0  0  0  0  0  0  0  0
    4.9674   -2.7400    0.0000 H   0  0  0  0  0  0  0  0  0  0  0  0
    6.0749   -0.6691    0.0000 H   0  0  0  0  0  0  0  0  0  0  0  0
    6.8216   -2.0234    0.0000 H   0  0  0  0  0  0  0  0  0  0  0  0
    2.5398    1.8824    0.0000 H   0  0  0  0  0  0  0  0  0  0  0  0
    6.8231    0.0108    0.0000 H   0  0  0  0  0  0  0  0  0  0  0  0
    3.9191    4.5465    0.0000 H   0  0  0  0  0  0  0  0  0  0  0  0
    8.5335    2.1576    0.0000 H   0  0  0  0  0  0  0  0  0  0  0  0
   -7.0212   -2.4578    0.0000 H   0  0  0  0  0  0  0  0  0  0  0  0
   -4.2626    2.8705    0.0000 H   0  0  0  0  0  0  0  0  0  0  0  0
    6.9159    4.6841    0.0000 H   0  0  0  0  0  0  0  0  0  0  0  0
   -8.6387    0.0687    0.0000 H   0  0  0  0  0  0  0  0  0  0  0  0
   -2.7139    1.8423    0.0000 H   0  0  0  0  0  0  0  0  0  0  0  0
   -2.5117   -0.4420    0.0000 H   0  0  0  0  0  0  0  0  0  0  0  0
   -1.1466    0.4127    0.0000 H   0  0  0  0  0  0  0  0  0  0  0  0
   -8.5228    1.9241    0.0000 H   0  0  0  0  0  0  0  0  0  0  0  0
   -5.9962    3.5417    0.0000 H   0  0  0  0  0  0  0  0  0  0  0  0
   -8.0683    3.9962    0.0000 H   0  0  0  0  0  0  0  0  0  0  0  0
  1  8  1  0
  1 12  1  0
  2  4  1  0
  2  5  1  0
  2 30  1  0
  3  5  1  0
  3  6  1  0
  3 23  1  0
  3 24  1  0
  4  7  1  0
  4  9  1  0
  4 25  1  6
  5 26  1  0
  5 27  1  0
  6  8  1  0
  6 28  1  0
  6 29  1  0
  7 10  2  0
  7 11  1  0
  8 31  1  0
  8 32  1  0
  9 33  1  0
  9 34  1  0
  9 35  1  0
 10 14  1  0
 10 36  1  0
 11 15  2  0
 11 37  1  0
 12 13  2  0
 12 16  1  0
 13 17  1  0
 13 21  1  0
 14 19  2  0
 14 38  1  0
 15 19  1  0
 15 39  1  0
 16 20  2  0
 16 40  1  0
 17 18  2  0
 17 41  1  0
 18 20  1  0
 18 22  1  0
 19 42  1  0
 20 43  1  0
 21 44  1  0
 21 45  1  0
 21 46  1  0
 22 47  1  0
 22 48  1  0
 22 49  1  0
M  STY  8   1 DAT   2 DAT   3 DAT   4 DAT   5 DAT   6 DAT   7 DAT   8 DAT
M  STY  8   9 DAT  10 DAT  11 DAT  12 DAT  13 DAT  14 DAT  15 DAT  16 DAT
M  STY  8  17 DAT  18 DAT  19 DAT  20 DAT  21 DAT  22 DAT  23 DAT  24 DAT
M  STY  8  25 DAT  26 DAT  27 DAT  28 DAT  29 DAT  30 DAT  31 DAT  32 DAT
M  STY  8  33 DAT  34 DAT  35 DAT  36 DAT  37 DAT  38 DAT  39 DAT  40 DAT
M  STY  8  41 DAT  42 DAT  43 DAT  44 DAT  45 DAT  46 DAT  47 DAT  48 DAT
M  STY  1  49 DAT
M  SAL   1  1   1
M  SED   1 [#8&h0]
M  SAL   2  1   2
M  SED   2 [#7&h0]
M  SAL   3  1   3
M  SED   3 [#6&h0]
M  SAL   4  1   4
M  SED   4 [#6&h0]
M  SAL   5  1   5
M  SED   5 [#6&h0]
M  SAL   6  1   6
M  SED   6 [#6&h0]
M  SAL   7  1   7
M  SED   7 [#6&h0]
M  SAL   8  1   8
M  SED   8 [#6&h0]
M  SAL   9  1   9
M  SED   9 [#6&h0]
M  SAL  10  1  10
M  SED  10 [#6&h0]
M  SAL  11  1  11
M  SED  11 [#6&h0]
M  SAL  12  1  12
M  SED  12 [#6&h0]
M  SAL  13  1  13
M  SED  13 [#6&h0]
M  SAL  14  1  14
M  SED  14 [#6&h0]
M  SAL  15  1  15
M  SED  15 [#6&h0]
M  SAL  16  1  16
M  SED  16 [#6&h0]
M  SAL  17  1  17
M  SED  17 [#6&h0]
M  SAL  18  1  18
M  SED  18 [#6&h0]
M  SAL  19  1  19
M  SED  19 [#6&h0]
M  SAL  20  1  20
M  SED  20 [#6&h0]
M  SAL  21  1  21
M  SED  21 [#6&h0]
M  SAL  22  1  22
M  SED  22 [#6&h0]
M  SAL  23  1  23
M  SED  23 [#1&h0]
M  SAL  24  1  24
M  SED  24 [#1&h0]
M  SAL  25  1  25
M  SED  25 [#1&h0]
M  SAL  26  1  26
M  SED  26 [#1&h0]
M  SAL  27  1  27
M  SED  27 [#1&h0]
M  SAL  28  1  28
M  SED  28 [#1&h0]
M  SAL  29  1  29
M  SED  29 [#1&h0]
M  SAL  30  1  30
M  SED  30 [#1&h0]
M  SAL  31  1  31
M  SED  31 [#1&h0]
M  SAL  32  1  32
M  SED  32 [#1&h0]
M  SAL  33  1  33
M  SED  33 [#1&h0]
M  SAL  34  1  34
M  SED  34 [#1&h0]
M  SAL  35  1  35
M  SED  35 [#1&h0]
M  SAL  36  1  36
M  SED  36 [#1&h0]
M  SAL  37  1  37
M  SED  37 [#1&h0]
M  SAL  38  1  38
M  SED  38 [#1&h0]
M  SAL  39  1  39
M  SED  39 [#1&h0]
M  SAL  40  1  40
M  SED  40 [#1&h0]
M  SAL  41  1  41
M  SED  41 [#1&h0]
M  SAL  42  1  42
M  SED  42 [#1&h0]
M  SAL  43  1  43
M  SED  43 [#1&h0]
M  SAL  44  1  44
M  SED  44 [#1&h0]
M  SAL  45  1  45
M  SED  45 [#1&h0]
M  SAL  46  1  46
M  SED  46 [#1&h0]
M  SAL  47  1  47
M  SED  47 [#1&h0]
M  SAL  48  1  48
M  SED  48 [#1&h0]
M  SAL  49  1  49
M  SED  49 [#1&h0]
M  END
>  <Activity>  (89) 
0.01

>  <Mapped(file=2032.csv.activities,property=Cached(PUBCHEM_COMPOUND_CID))>  (89) 
100

>  <MatchIndices>  (89) 
174 

>  <PUBCHEM_ATOM_DEF_STEREO_COUNT>  (89) 
0

>  <PUBCHEM_ATOM_UDEF_STEREO_COUNT>  (89) 
1

>  <PUBCHEM_BONDANNOTATIONS>  (89) 
10  14  8
11  15  8
12  13  8
12  16  8
13  17  8
14  19  8
15  19  8
16  20  8
17  18  8
18  20  8
4  9  3
7  10  8
7  11  8

>  <PUBCHEM_BOND_DEF_STEREO_COUNT>  (89) 
0

>  <PUBCHEM_BOND_UDEF_STEREO_COUNT>  (89) 
0

>  <PUBCHEM_CACTVS_COMPLEXITY>  (89) 
287

>  <PUBCHEM_CACTVS_HBOND_ACCEPTOR>  (89) 
2

>  <PUBCHEM_CACTVS_HBOND_DONOR>  (89) 
1

>  <PUBCHEM_CACTVS_ROTATABLE_BOND>  (89) 
8

>  <PUBCHEM_CACTVS_SUBSKEYS>  (89) 
AAADceB6IAAAAAAAAAAAAAAAAAAAAAAAAAAwYAAAAAAAAAABQAAAHgAQAAAADCzhmAYyBoLABACAAiBCAACCCAAgIAAIiIAODIgMJiKEsRuGOCjk0BGIqAewwOAOIAACAAAIAABAAAQAABAAAAAAAAAAAA==

>  <PUBCHEM_CACTVS_TAUTO_COUNT>  (89) 
1

>  <PUBCHEM_CACTVS_TPSA>  (89) 
21.3

>  <PUBCHEM_COMPONENT_COUNT>  (89) 
1

>  <PUBCHEM_COMPOUND_CANONICALIZED>  (89) 
1

>  <PUBCHEM_COMPOUND_CID>  (89) 
2935293

>  <PUBCHEM_COORDINATE_TYPE>  (89) 
1
5
255

>  <PUBCHEM_EXACT_MASS>  (89) 
297.209264

>  <PUBCHEM_HEAVY_ATOM_COUNT>  (89) 
22

>  <PUBCHEM_ISOTOPIC_ATOM_COUNT>  (89) 
0

>  <PUBCHEM_IUPAC_CAS_NAME>  (89) 
4-(2,4-dimethylphenoxy)-N-(1-phenylethyl)-1-butanamine

>  <PUBCHEM_IUPAC_INCHI>  (89) 
InChI=1S/C20H27NO/c1-16-11-12-20(17(2)15-16)22-14-8-7-13-21-18(3)19-9-5-4-6-10-19/h4-6,9-12,15,18,21H,7-8,13-14H2,1-3H3

>  <PUBCHEM_IUPAC_INCHIKEY>  (89) 
LYGAAHYMZHBKOM-UHFFFAOYSA-N

>  <PUBCHEM_IUPAC_NAME>  (89) 
4-(2,4-dimethylphenoxy)-N-(1-phenylethyl)butan-1-amine

>  <PUBCHEM_IUPAC_OPENEYE_NAME>  (89) 
4-(2,4-dimethylphenoxy)-N-(1-phenylethyl)butan-1-amine

>  <PUBCHEM_IUPAC_SYSTEMATIC_NAME>  (89) 
4-(2,4-dimethylphenoxy)-N-(1-phenylethyl)butan-1-amine

>  <PUBCHEM_IUPAC_TRADITIONAL_NAME>  (89) 
4-(2,4-dimethylphenoxy)butyl-(1-phenylethyl)amine

>  <PUBCHEM_MOLECULAR_FORMULA>  (89) 
C20H27NO

>  <PUBCHEM_MOLECULAR_WEIGHT>  (89) 
297.43448

>  <PUBCHEM_MONOISOTOPIC_WEIGHT>  (89) 
297.209264

>  <PUBCHEM_OPENEYE_CAN_SMILES>  (89) 
CC1=CC(=C(C=C1)OCCCCNC(C)C2=CC=CC=C2)C

>  <PUBCHEM_OPENEYE_ISO_SMILES>  (89) 
CC1=CC(=C(C=C1)OCCCCNC(C)C2=CC=CC=C2)C

>  <PUBCHEM_TOTAL_CHARGE>  (89) 
0

>  <PUBCHEM_XLOGP3_AA>  (89) 
4.8

$$$$
Largest isolated from Written by BCL::WriteToMDL,766823
     RDKit          2D

 46 47  0 46  0  0  0  0  0  0999 V2000
    1.7214   -2.9674    0.0000 O   0  0  0  0  0  0  0  0  0  0  0  0
    3.1352    2.8636    0.0000 O   0  0  0  0  0  0  0  0  0  0  0  0
   -4.7676   -2.1659    0.0000 O   0  0  0  0  0  0  0  0  0  0  0  0
    5.3067    0.7937    0.0000 O   0  0  0  0  0  0  0  0  0  0  0  0
   -1.8892   -1.3203    0.0000 N   0  0  0  0  0  0  0  0  0  0  0  0
   -0.4501   -0.8975    0.0000 C   0  0  0  0  0  0  0  0  0  0  0  0
    0.9891   -0.4747    0.0000 C   0  0  0  0  0  0  0  0  0  0  0  0
   -2.9750   -0.2853    0.0000 C   0  0  0  0  0  0  0  0  0  0  0  0
    2.0749   -1.5097    0.0000 C   0  0  0  0  0  0  0  0  0  0  0  0
    1.3426    0.9831    0.0000 C   0  0  0  0  0  0  0  0  0  0  0  0
    2.7817    1.4059    0.0000 C   0  0  0  0  0  0  0  0  0  0  0  0
   -4.4142   -0.7081    0.0000 C   0  0  0  0  0  0  0  0  0  0  0  0
   -2.6215    1.1725    0.0000 C   0  0  0  0  0  0  0  0  0  0  0  0
    3.5140   -1.0869    0.0000 C   0  0  0  0  0  0  0  0  0  0  0  0
    3.8675    0.3709    0.0000 C   0  0  0  0  0  0  0  0  0  0  0  0
   -3.7073    2.2074    0.0000 C   0  0  0  0  0  0  0  0  0  0  0  0
   -5.4999    0.3269    0.0000 C   0  0  0  0  0  0  0  0  0  0  0  0
   -5.1465    1.7846    0.0000 C   0  0  0  0  0  0  0  0  0  0  0  0
   -3.3539    3.6652    0.0000 C   0  0  0  0  0  0  0  0  0  0  0  0
    2.8072   -4.0024    0.0000 C   0  0  0  0  0  0  0  0  0  0  0  0
    4.5744    3.2864    0.0000 C   0  0  0  0  0  0  0  0  0  0  0  0
   -6.2068   -2.5887    0.0000 C   0  0  0  0  0  0  0  0  0  0  0  0
    6.3924   -0.2413    0.0000 C   0  0  0  0  0  0  0  0  0  0  0  0
   -0.8729    0.5417    0.0000 H   0  0  0  0  0  0  0  0  0  0  0  0
   -0.0273   -2.3367    0.0000 H   0  0  0  0  0  0  0  0  0  0  0  0
   -2.2427   -2.7780    0.0000 H   0  0  0  0  0  0  0  0  0  0  0  0
    0.2568    2.0180    0.0000 H   0  0  0  0  0  0  0  0  0  0  0  0
   -1.1824    1.5953    0.0000 H   0  0  0  0  0  0  0  0  0  0  0  0
    4.5998   -2.1218    0.0000 H   0  0  0  0  0  0  0  0  0  0  0  0
   -6.9391   -0.0959    0.0000 H   0  0  0  0  0  0  0  0  0  0  0  0
   -6.2322    2.8196    0.0000 H   0  0  0  0  0  0  0  0  0  0  0  0
   -4.8116    4.0186    0.0000 H   0  0  0  0  0  0  0  0  0  0  0  0
   -1.8961    3.3118    0.0000 H   0  0  0  0  0  0  0  0  0  0  0  0
   -3.0004    5.1230    0.0000 H   0  0  0  0  0  0  0  0  0  0  0  0
    3.8421   -2.9166    0.0000 H   0  0  0  0  0  0  0  0  0  0  0  0
    1.7722   -5.0881    0.0000 H   0  0  0  0  0  0  0  0  0  0  0  0
    3.8929   -5.0374    0.0000 H   0  0  0  0  0  0  0  0  0  0  0  0
    4.1516    4.7256    0.0000 H   0  0  0  0  0  0  0  0  0  0  0  0
    4.9972    1.8473    0.0000 H   0  0  0  0  0  0  0  0  0  0  0  0
    6.0135    3.7092    0.0000 H   0  0  0  0  0  0  0  0  0  0  0  0
   -5.7840   -4.0279    0.0000 H   0  0  0  0  0  0  0  0  0  0  0  0
   -6.6296   -1.1495    0.0000 H   0  0  0  0  0  0  0  0  0  0  0  0
   -7.6460   -3.0115    0.0000 H   0  0  0  0  0  0  0  0  0  0  0  0
    7.4274    0.8445    0.0000 H   0  0  0  0  0  0  0  0  0  0  0  0
    5.3574   -1.3270    0.0000 H   0  0  0  0  0  0  0  0  0  0  0  0
    7.4782   -1.2762    0.0000 H   0  0  0  0  0  0  0  0  0  0  0  0
  1  9  1  0
  1 20  1  0
  2 11  1  0
  2 21  1  0
  3 12  1  0
  3 22  1  0
  4 15  1  0
  4 23  1  0
  5  6  1  0
  5  8  1  0
  5 26  1  0
  6  7  1  0
  6 24  1  0
  6 25  1  0
  7  9  2  0
  7 10  1  0
  8 12  2  0
  8 13  1  0
  9 14  1  0
 10 11  2  0
 10 27  1  0
 11 15  1  0
 12 17  1  0
 13 16  2  0
 13 28  1  0
 14 15  2  0
 14 29  1  0
 16 18  1  0
 16 19  1  0
 17 18  2  0
 17 30  1  0
 18 31  1  0
 19 32  1  0
 19 33  1  0
 19 34  1  0
 20 35  1  0
 20 36  1  0
 20 37  1  0
 21 38  1  0
 21 39  1  0
 21 40  1  0
 22 41  1  0
 22 42  1  0
 22 43  1  0
 23 44  1  0
 23 45  1  0
 23 46  1  0
M  STY  8   1 DAT   2 DAT   3 DAT   4 DAT   5 DAT   6 DAT   7 DAT   8 DAT
M  STY  8   9 DAT  10 DAT  11 DAT  12 DAT  13 DAT  14 DAT  15 DAT  16 DAT
M  STY  8  17 DAT  18 DAT  19 DAT  20 DAT  21 DAT  22 DAT  23 DAT  24 DAT
M  STY  8  25 DAT  26 DAT  27 DAT  28 DAT  29 DAT  30 DAT  31 DAT  32 DAT
M  STY  8  33 DAT  34 DAT  35 DAT  36 DAT  37 DAT  38 DAT  39 DAT  40 DAT
M  STY  6  41 DAT  42 DAT  43 DAT  44 DAT  45 DAT  46 DAT
M  SAL   1  1   1
M  SED   1 [#8&h0]
M  SAL   2  1   2
M  SED   2 [#8&h0]
M  SAL   3  1   3
M  SED   3 [#8&h0]
M  SAL   4  1   4
M  SED   4 [#8&h0]
M  SAL   5  1   5
M  SED   5 [#7&h0]
M  SAL   6  1   6
M  SED   6 [#6&h0]
M  SAL   7  1   7
M  SED   7 [#6&h0]
M  SAL   8  1   8
M  SED   8 [#6&h0]
M  SAL   9  1   9
M  SED   9 [#6&h0]
M  SAL  10  1  10
M  SED  10 [#6&h0]
M  SAL  11  1  11
M  SED  11 [#6&h0]
M  SAL  12  1  12
M  SED  12 [#6&h0]
M  SAL  13  1  13
M  SED  13 [#6&h0]
M  SAL  14  1  14
M  SED  14 [#6&h0]
M  SAL  15  1  15
M  SED  15 [#6&h0]
M  SAL  16  1  16
M  SED  16 [#6&h0]
M  SAL  17  1  17
M  SED  17 [#6&h0]
M  SAL  18  1  18
M  SED  18 [#6&h0]
M  SAL  19  1  19
M  SED  19 [#6&h0]
M  SAL  20  1  20
M  SED  20 [#6&h0]
M  SAL  21  1  21
M  SED  21 [#6&h0]
M  SAL  22  1  22
M  SED  22 [#6&h0]
M  SAL  23  1  23
M  SED  23 [#6&h0]
M  SAL  24  1  24
M  SED  24 [#1&h0]
M  SAL  25  1  25
M  SED  25 [#1&h0]
M  SAL  26  1  26
M  SED  26 [#1&h0]
M  SAL  27  1  27
M  SED  27 [#1&h0]
M  SAL  28  1  28
M  SED  28 [#1&h0]
M  SAL  29  1  29
M  SED  29 [#1&h0]
M  SAL  30  1  30
M  SED  30 [#1&h0]
M  SAL  31  1  31
M  SED  31 [#1&h0]
M  SAL  32  1  32
M  SED  32 [#1&h0]
M  SAL  33  1  33
M  SED  33 [#1&h0]
M  SAL  34  1  34
M  SED  34 [#1&h0]
M  SAL  35  1  35
M  SED  35 [#1&h0]
M  SAL  36  1  36
M  SED  36 [#1&h0]
M  SAL  37  1  37
M  SED  37 [#1&h0]
M  SAL  38  1  38
M  SED  38 [#1&h0]
M  SAL  39  1  39
M  SED  39 [#1&h0]
M  SAL  40  1  40
M  SED  40 [#1&h0]
M  SAL  41  1  41
M  SED  41 [#1&h0]
M  SAL  42  1  42
M  SED  42 [#1&h0]
M  SAL  43  1  43
M  SED  43 [#1&h0]
M  SAL  44  1  44
M  SED  44 [#1&h0]
M  SAL  45  1  45
M  SED  45 [#1&h0]
M  SAL  46  1  46
M  SED  46 [#1&h0]
M  END
>  <Activity>  (90) 
0.01

>  <Mapped(file=2032.csv.activities,property=Cached(PUBCHEM_COMPOUND_CID))>  (90) 
100

>  <MatchIndices>  (90) 
128 

>  <PUBCHEM_ATOM_DEF_STEREO_COUNT>  (90) 
0

>  <PUBCHEM_ATOM_UDEF_STEREO_COUNT>  (90) 
0

>  <PUBCHEM_BONDANNOTATIONS>  (90) 
10  11  8
11  15  8
12  17  8
13  16  8
14  15  8
16  18  8
17  18  8
7  10  8
7  9  8
8  12  8
8  13  8
9  14  8

>  <PUBCHEM_BOND_DEF_STEREO_COUNT>  (90) 
0

>  <PUBCHEM_BOND_UDEF_STEREO_COUNT>  (90) 
0

>  <PUBCHEM_CACTVS_COMPLEXITY>  (90) 
341

>  <PUBCHEM_CACTVS_HBOND_ACCEPTOR>  (90) 
5

>  <PUBCHEM_CACTVS_HBOND_DONOR>  (90) 
1

>  <PUBCHEM_CACTVS_ROTATABLE_BOND>  (90) 
7

>  <PUBCHEM_CACTVS_SUBSKEYS>  (90) 
AAADceB6OAAAAAAAAAAAAAAAAAAAAAAAAAAwYAAAAAAAAAABQAAAHgAQAAAADAzBmAYyxoLABACAAiRCQACCCAAhIgAIiIAP7IgPJyLEsZuFMCpn0BXa6Afw8D4OIQABSAAIUABCAAKQABCgAAAAAAAAAA==

>  <PUBCHEM_CACTVS_TAUTO_COUNT>  (90) 
1

>  <PUBCHEM_CACTVS_TPSA>  (90) 
49

>  <PUBCHEM_COMPONENT_COUNT>  (90) 
1

>  <PUBCHEM_COMPOUND_CANONICALIZED>  (90) 
1

>  <PUBCHEM_COMPOUND_CID>  (90) 
766823

>  <PUBCHEM_COORDINATE_TYPE>  (90) 
1
5
255

>  <PUBCHEM_EXACT_MASS>  (90) 
317.162708

>  <PUBCHEM_HEAVY_ATOM_COUNT>  (90) 
23

>  <PUBCHEM_ISOTOPIC_ATOM_COUNT>  (90) 
0

>  <PUBCHEM_IUPAC_CAS_NAME>  (90) 
2-methoxy-5-methyl-N-[(2,4,5-trimethoxyphenyl)methyl]aniline

>  <PUBCHEM_IUPAC_INCHI>  (90) 
InChI=1S/C18H23NO4/c1-12-6-7-15(20-2)14(8-12)19-11-13-9-17(22-4)18(23-5)10-16(13)21-3/h6-10,19H,11H2,1-5H3

>  <PUBCHEM_IUPAC_INCHIKEY>  (90) 
YCPIUHSPCGFCQJ-UHFFFAOYSA-N

>  <PUBCHEM_IUPAC_NAME>  (90) 
2-methoxy-5-methyl-N-[(2,4,5-trimethoxyphenyl)methyl]aniline

>  <PUBCHEM_IUPAC_OPENEYE_NAME>  (90) 
2-methoxy-5-methyl-N-[(2,4,5-trimethoxyphenyl)methyl]aniline

>  <PUBCHEM_IUPAC_SYSTEMATIC_NAME>  (90) 
2-methoxy-5-methyl-N-[(2,4,5-trimethoxyphenyl)methyl]aniline

>  <PUBCHEM_IUPAC_TRADITIONAL_NAME>  (90) 
(2-methoxy-5-methyl-phenyl)-(2,4,5-trimethoxybenzyl)amine

>  <PUBCHEM_MOLECULAR_FORMULA>  (90) 
C18H23NO4

>  <PUBCHEM_MOLECULAR_WEIGHT>  (90) 
317.37952

>  <PUBCHEM_MONOISOTOPIC_WEIGHT>  (90) 
317.162708

>  <PUBCHEM_OPENEYE_CAN_SMILES>  (90) 
CC1=CC(=C(C=C1)OC)NCC2=CC(=C(C=C2OC)OC)OC

>  <PUBCHEM_OPENEYE_ISO_SMILES>  (90) 
CC1=CC(=C(C=C1)OC)NCC2=CC(=C(C=C2OC)OC)OC

>  <PUBCHEM_TOTAL_CHARGE>  (90) 
0

>  <PUBCHEM_XLOGP3_AA>  (90) 
3.6

$$$$
Largest isolated from Written by BCL::WriteToMDL,2978550
     RDKit          2D

 40 41  0 40  0  0  0  0  0  0999 V2000
    0.7680    0.4701    0.0000 S   0  0  0  0  0  0  0  0  0  0  0  0
    4.7299    3.8321    0.0000 F   0  0  0  0  0  0  0  0  0  0  0  0
    0.6812    1.9676    0.0000 O   0  0  0  0  0  0  0  0  0  0  0  0
    1.2145   -0.9619    0.0000 O   0  0  0  0  0  0  0  0  0  0  0  0
    2.7090   -1.8173    0.0000 O   0  0  0  0  0  0  0  0  0  0  0  0
   -0.7078    0.2014    0.0000 N   0  0  0  0  0  0  0  0  0  0  0  0
   -2.6887   -1.4796    0.0000 C   0  0  0  0  0  0  0  0  0  0  0  0
   -3.1540    1.0765    0.0000 C   0  0  0  0  0  0  0  0  0  0  0  0
   -3.6593   -0.3359    0.0000 C   0  0  0  0  0  0  0  0  0  0  0  0
   -1.2130   -1.2109    0.0000 C   0  0  0  0  0  0  0  0  0  0  0  0
   -1.6783    1.3451    0.0000 C   0  0  0  0  0  0  0  0  0  0  0  0
   -3.1623    2.5765    0.0000 C   0  0  0  0  0  0  0  0  0  0  0  0
   -3.9836   -2.2368    0.0000 C   0  0  0  0  0  0  0  0  0  0  0  0
    2.2437    0.7387    0.0000 C   0  0  0  0  0  0  0  0  0  0  0  0
    3.2143   -0.4050    0.0000 C   0  0  0  0  0  0  0  0  0  0  0  0
    2.7490    2.1511    0.0000 C   0  0  0  0  0  0  0  0  0  0  0  0
    4.6900   -0.1363    0.0000 C   0  0  0  0  0  0  0  0  0  0  0  0
    4.2247    2.4197    0.0000 C   0  0  0  0  0  0  0  0  0  0  0  0
    5.1952    1.2760    0.0000 C   0  0  0  0  0  0  0  0  0  0  0  0
    3.6796   -2.9611    0.0000 C   0  0  0  0  0  0  0  0  0  0  0  0
   -4.6327    1.3288    0.0000 H   0  0  0  0  0  0  0  0  0  0  0  0
   -2.1679   -2.8862    0.0000 H   0  0  0  0  0  0  0  0  0  0  0  0
   -4.2393   -0.8827    0.0000 H   0  0  0  0  0  0  0  0  0  0  0  0
   -4.9624    0.4069    0.0000 H   0  0  0  0  0  0  0  0  0  0  0  0
   -2.0238    2.8048    0.0000 H   0  0  0  0  0  0  0  0  0  0  0  0
   -0.4854    2.2545    0.0000 H   0  0  0  0  0  0  0  0  0  0  0  0
    0.2239   -1.6416    0.0000 H   0  0  0  0  0  0  0  0  0  0  0  0
   -1.2047   -2.7109    0.0000 H   0  0  0  0  0  0  0  0  0  0  0  0
   -3.2264   -3.5316    0.0000 H   0  0  0  0  0  0  0  0  0  0  0  0
   -4.4669   -1.6028    0.0000 H   0  0  0  0  0  0  0  0  0  0  0  0
   -5.2785   -2.9939    0.0000 H   0  0  0  0  0  0  0  0  0  0  0  0
   -1.6746    2.7676    0.0000 H   0  0  0  0  0  0  0  0  0  0  0  0
   -4.6623    2.5682    0.0000 H   0  0  0  0  0  0  0  0  0  0  0  0
   -3.1706    4.0765    0.0000 H   0  0  0  0  0  0  0  0  0  0  0  0
    1.7784    3.2948    0.0000 H   0  0  0  0  0  0  0  0  0  0  0  0
    5.6605   -1.2801    0.0000 H   0  0  0  0  0  0  0  0  0  0  0  0
    6.6710    1.5447    0.0000 H   0  0  0  0  0  0  0  0  0  0  0  0
    2.5359   -3.9316    0.0000 H   0  0  0  0  0  0  0  0  0  0  0  0
    4.8233   -1.9905    0.0000 H   0  0  0  0  0  0  0  0  0  0  0  0
    4.6501   -4.1048    0.0000 H   0  0  0  0  0  0  0  0  0  0  0  0
  1  3  2  0
  1  4  2  0
  1  6  1  0
  1 14  1  0
  2 18  1  0
  5 15  1  0
  5 20  1  0
  6 10  1  0
  6 11  1  0
  7  9  1  0
  7 10  1  0
  7 13  1  0
  7 22  1  6
  8  9  1  0
  8 11  1  0
  8 12  1  0
  8 21  1  1
  9 23  1  0
  9 24  1  0
 10 27  1  0
 10 28  1  0
 11 25  1  0
 11 26  1  0
 12 32  1  0
 12 33  1  0
 12 34  1  0
 13 29  1  0
 13 30  1  0
 13 31  1  0
 14 15  2  0
 14 16  1  0
 15 17  1  0
 16 18  2  0
 16 35  1  0
 17 19  2  0
 17 36  1  0
 18 19  1  0
 19 37  1  0
 20 38  1  0
 20 39  1  0
 20 40  1  0
M  STY  8   1 DAT   2 DAT   3 DAT   4 DAT   5 DAT   6 DAT   7 DAT   8 DAT
M  STY  8   9 DAT  10 DAT  11 DAT  12 DAT  13 DAT  14 DAT  15 DAT  16 DAT
M  STY  8  17 DAT  18 DAT  19 DAT  20 DAT  21 DAT  22 DAT  23 DAT  24 DAT
M  STY  8  25 DAT  26 DAT  27 DAT  28 DAT  29 DAT  30 DAT  31 DAT  32 DAT
M  STY  8  33 DAT  34 DAT  35 DAT  36 DAT  37 DAT  38 DAT  39 DAT  40 DAT
M  SAL   1  1   1
M  SED   1 [#16&h0]
M  SAL   2  1   2
M  SED   2 [#9&h0]
M  SAL   3  1   3
M  SED   3 [#8&h0]
M  SAL   4  1   4
M  SED   4 [#8&h0]
M  SAL   5  1   5
M  SED   5 [#8&h0]
M  SAL   6  1   6
M  SED   6 [#7&h0]
M  SAL   7  1   7
M  SED   7 [#6&h0]
M  SAL   8  1   8
M  SED   8 [#6&h0]
M  SAL   9  1   9
M  SED   9 [#6&h0]
M  SAL  10  1  10
M  SED  10 [#6&h0]
M  SAL  11  1  11
M  SED  11 [#6&h0]
M  SAL  12  1  12
M  SED  12 [#6&h0]
M  SAL  13  1  13
M  SED  13 [#6&h0]
M  SAL  14  1  14
M  SED  14 [#6&h0]
M  SAL  15  1  15
M  SED  15 [#6&h0]
M  SAL  16  1  16
M  SED  16 [#6&h0]
M  SAL  17  1  17
M  SED  17 [#6&h0]
M  SAL  18  1  18
M  SED  18 [#6&h0]
M  SAL  19  1  19
M  SED  19 [#6&h0]
M  SAL  20  1  20
M  SED  20 [#6&h0]
M  SAL  21  1  21
M  SED  21 [#1&h0]
M  SAL  22  1  22
M  SED  22 [#1&h0]
M  SAL  23  1  23
M  SED  23 [#1&h0]
M  SAL  24  1  24
M  SED  24 [#1&h0]
M  SAL  25  1  25
M  SED  25 [#1&h0]
M  SAL  26  1  26
M  SED  26 [#1&h0]
M  SAL  27  1  27
M  SED  27 [#1&h0]
M  SAL  28  1  28
M  SED  28 [#1&h0]
M  SAL  29  1  29
M  SED  29 [#1&h0]
M  SAL  30  1  30
M  SED  30 [#1&h0]
M  SAL  31  1  31
M  SED  31 [#1&h0]
M  SAL  32  1  32
M  SED  32 [#1&h0]
M  SAL  33  1  33
M  SED  33 [#1&h0]
M  SAL  34  1  34
M  SED  34 [#1&h0]
M  SAL  35  1  35
M  SED  35 [#1&h0]
M  SAL  36  1  36
M  SED  36 [#1&h0]
M  SAL  37  1  37
M  SED  37 [#1&h0]
M  SAL  38  1  38
M  SED  38 [#1&h0]
M  SAL  39  1  39
M  SED  39 [#1&h0]
M  SAL  40  1  40
M  SED  40 [#1&h0]
M  END
>  <Activity>  (91) 
0.01

>  <Mapped(file=2032.csv.activities,property=Cached(PUBCHEM_COMPOUND_CID))>  (91) 
100

>  <MatchIndices>  (91) 
98 

>  <PUBCHEM_ATOM_DEF_STEREO_COUNT>  (91) 
0

>  <PUBCHEM_ATOM_UDEF_STEREO_COUNT>  (91) 
2

>  <PUBCHEM_BONDANNOTATIONS>  (91) 
14  15  8
14  16  8
15  17  8
16  18  8
17  19  8
18  19  8
7  13  3
8  12  3

>  <PUBCHEM_BOND_DEF_STEREO_COUNT>  (91) 
0

>  <PUBCHEM_BOND_UDEF_STEREO_COUNT>  (91) 
0

>  <PUBCHEM_CACTVS_COMPLEXITY>  (91) 
413

>  <PUBCHEM_CACTVS_HBOND_ACCEPTOR>  (91) 
5

>  <PUBCHEM_CACTVS_HBOND_DONOR>  (91) 
0

>  <PUBCHEM_CACTVS_ROTATABLE_BOND>  (91) 
3

>  <PUBCHEM_CACTVS_SUBSKEYS>  (91) 
AAADceByMQBAAAAAAAAAAAAAAAAAAAAAAAA8QAAAAAAAAAABAAAAHwQAQAAADQTB0A4yB4IABAKAACBCAHBCCBAgIAAIiBoOCIgMJiKEsRqEMCAkwBGIqAeQQAAMAAAAAAAAIAAAAAAAAABAAAAAAAAAAA==

>  <PUBCHEM_CACTVS_TAUTO_COUNT>  (91) 
1

>  <PUBCHEM_CACTVS_TPSA>  (91) 
55

>  <PUBCHEM_COMPONENT_COUNT>  (91) 
1

>  <PUBCHEM_COMPOUND_CANONICALIZED>  (91) 
1

>  <PUBCHEM_COMPOUND_CID>  (91) 
2978550

>  <PUBCHEM_COORDINATE_TYPE>  (91) 
1
5
255

>  <PUBCHEM_EXACT_MASS>  (91) 
301.114793

>  <PUBCHEM_HEAVY_ATOM_COUNT>  (91) 
20

>  <PUBCHEM_ISOTOPIC_ATOM_COUNT>  (91) 
0

>  <PUBCHEM_IUPAC_CAS_NAME>  (91) 
1-(5-fluoro-2-methoxyphenyl)sulfonyl-3,5-dimethylpiperidine

>  <PUBCHEM_IUPAC_INCHI>  (91) 
InChI=1S/C14H20FNO3S/c1-10-6-11(2)9-16(8-10)20(17,18)14-7-12(15)4-5-13(14)19-3/h4-5,7,10-11H,6,8-9H2,1-3H3

>  <PUBCHEM_IUPAC_INCHIKEY>  (91) 
OUHFXIVFJAQGHS-UHFFFAOYSA-N

>  <PUBCHEM_IUPAC_NAME>  (91) 
1-(5-fluoro-2-methoxyphenyl)sulfonyl-3,5-dimethylpiperidine

>  <PUBCHEM_IUPAC_OPENEYE_NAME>  (91) 
1-(5-fluoro-2-methoxy-phenyl)sulfonyl-3,5-dimethyl-piperidine

>  <PUBCHEM_IUPAC_SYSTEMATIC_NAME>  (91) 
1-(5-fluoranyl-2-methoxy-phenyl)sulfonyl-3,5-dimethyl-piperidine

>  <PUBCHEM_IUPAC_TRADITIONAL_NAME>  (91) 
1-(5-fluoro-2-methoxy-phenyl)sulfonyl-3,5-dimethyl-piperidine

>  <PUBCHEM_MOLECULAR_FORMULA>  (91) 
C14H20FNO3S

>  <PUBCHEM_MOLECULAR_WEIGHT>  (91) 
301.376903

>  <PUBCHEM_MONOISOTOPIC_WEIGHT>  (91) 
301.114793

>  <PUBCHEM_OPENEYE_CAN_SMILES>  (91) 
CC1CC(CN(C1)S(=O)(=O)C2=C(C=CC(=C2)F)OC)C

>  <PUBCHEM_OPENEYE_ISO_SMILES>  (91) 
CC1CC(CN(C1)S(=O)(=O)C2=C(C=CC(=C2)F)OC)C

>  <PUBCHEM_TOTAL_CHARGE>  (91) 
0

>  <PUBCHEM_XLOGP3_AA>  (91) 
2.9

$$$$
Largest isolated from Written by BCL::WriteToMDL,2952997
     RDKit          2D

 37 39  0 37  0  0  0  0  0  0999 V2000
    4.8843    1.3721    0.0000 O   0  0  0  0  0  0  0  0  0  0  0  0
   -0.2397   -1.7494    0.0000 N   0  0  0  0  0  0  0  0  0  0  0  0
   -2.8371   -1.8105    0.0000 N   0  0  0  0  0  0  0  0  0  0  0  0
   -1.5914    0.4694    0.0000 N   0  0  0  0  0  0  0  0  0  0  0  0
   -2.9431    2.6882    0.0000 N   0  0  0  0  0  0  0  0  0  0  0  0
   -4.1888    0.4082    0.0000 C   0  0  0  0  0  0  0  0  0  0  0  0
   -4.1534   -1.0913    0.0000 C   0  0  0  0  0  0  0  0  0  0  0  0
    1.0413   -0.9690    0.0000 C   0  0  0  0  0  0  0  0  0  0  0  0
   -1.5561   -1.0302    0.0000 C   0  0  0  0  0  0  0  0  0  0  0  0
   -2.9077    1.1886    0.0000 C   0  0  0  0  0  0  0  0  0  0  0  0
   -5.5051    1.1274    0.0000 C   0  0  0  0  0  0  0  0  0  0  0  0
   -5.4345   -1.8717    0.0000 C   0  0  0  0  0  0  0  0  0  0  0  0
    2.3576   -1.6882    0.0000 C   0  0  0  0  0  0  0  0  0  0  0  0
    1.0060    0.5306    0.0000 C   0  0  0  0  0  0  0  0  0  0  0  0
    3.6033    0.5918    0.0000 C   0  0  0  0  0  0  0  0  0  0  0  0
    3.6386   -0.9078    0.0000 C   0  0  0  0  0  0  0  0  0  0  0  0
    2.2870    1.3110    0.0000 C   0  0  0  0  0  0  0  0  0  0  0  0
   -6.7861    0.3471    0.0000 C   0  0  0  0  0  0  0  0  0  0  0  0
   -6.7508   -1.1525    0.0000 C   0  0  0  0  0  0  0  0  0  0  0  0
    6.2007    0.6529    0.0000 C   0  0  0  0  0  0  0  0  0  0  0  0
    7.5170   -0.0663    0.0000 C   0  0  0  0  0  0  0  0  0  0  0  0
   -0.2044   -3.2490    0.0000 H   0  0  0  0  0  0  0  0  0  0  0  0
   -5.5404    2.6270    0.0000 H   0  0  0  0  0  0  0  0  0  0  0  0
   -5.3991   -3.3713    0.0000 H   0  0  0  0  0  0  0  0  0  0  0  0
    2.3929   -3.1878    0.0000 H   0  0  0  0  0  0  0  0  0  0  0  0
   -0.3104    1.2498    0.0000 H   0  0  0  0  0  0  0  0  0  0  0  0
    4.9550   -1.6270    0.0000 H   0  0  0  0  0  0  0  0  0  0  0  0
    2.2517    2.8106    0.0000 H   0  0  0  0  0  0  0  0  0  0  0  0
   -8.1025    1.0663    0.0000 H   0  0  0  0  0  0  0  0  0  0  0  0
   -8.0318   -1.9329    0.0000 H   0  0  0  0  0  0  0  0  0  0  0  0
    6.9199    1.9693    0.0000 H   0  0  0  0  0  0  0  0  0  0  0  0
    5.4815   -0.6634    0.0000 H   0  0  0  0  0  0  0  0  0  0  0  0
   -1.6620    3.4686    0.0000 H   0  0  0  0  0  0  0  0  0  0  0  0
   -4.2594    3.4074    0.0000 H   0  0  0  0  0  0  0  0  0  0  0  0
    6.7978   -1.3826    0.0000 H   0  0  0  0  0  0  0  0  0  0  0  0
    8.2362    1.2501    0.0000 H   0  0  0  0  0  0  0  0  0  0  0  0
    8.8333   -0.7855    0.0000 H   0  0  0  0  0  0  0  0  0  0  0  0
  1 15  1  0
  1 20  1  0
  2  8  1  0
  2  9  1  0
  2 22  1  0
  3  7  2  0
  3  9  1  0
  4  9  2  0
  4 10  1  0
  5 10  1  0
  5 33  1  0
  5 34  1  0
  6  7  1  0
  6 10  2  0
  6 11  1  0
  7 12  1  0
  8 13  2  0
  8 14  1  0
 11 18  2  0
 11 23  1  0
 12 19  2  0
 12 24  1  0
 13 16  1  0
 13 25  1  0
 14 17  2  0
 14 26  1  0
 15 16  2  0
 15 17  1  0
 16 27  1  0
 17 28  1  0
 18 19  1  0
 18 29  1  0
 19 30  1  0
 20 21  1  0
 20 31  1  0
 20 32  1  0
 21 35  1  0
 21 36  1  0
 21 37  1  0
M  STY  8   1 DAT   2 DAT   3 DAT   4 DAT   5 DAT   6 DAT   7 DAT   8 DAT
M  STY  8   9 DAT  10 DAT  11 DAT  12 DAT  13 DAT  14 DAT  15 DAT  16 DAT
M  STY  8  17 DAT  18 DAT  19 DAT  20 DAT  21 DAT  22 DAT  23 DAT  24 DAT
M  STY  8  25 DAT  26 DAT  27 DAT  28 DAT  29 DAT  30 DAT  31 DAT  32 DAT
M  STY  5  33 DAT  34 DAT  35 DAT  36 DAT  37 DAT
M  SAL   1  1   1
M  SED   1 [#8&h0]
M  SAL   2  1   2
M  SED   2 [#7&h0]
M  SAL   3  1   3
M  SED   3 [#7&h0]
M  SAL   4  1   4
M  SED   4 [#7&h0]
M  SAL   5  1   5
M  SED   5 [#7&h0]
M  SAL   6  1   6
M  SED   6 [#6&h0]
M  SAL   7  1   7
M  SED   7 [#6&h0]
M  SAL   8  1   8
M  SED   8 [#6&h0]
M  SAL   9  1   9
M  SED   9 [#6&h0]
M  SAL  10  1  10
M  SED  10 [#6&h0]
M  SAL  11  1  11
M  SED  11 [#6&h0]
M  SAL  12  1  12
M  SED  12 [#6&h0]
M  SAL  13  1  13
M  SED  13 [#6&h0]
M  SAL  14  1  14
M  SED  14 [#6&h0]
M  SAL  15  1  15
M  SED  15 [#6&h0]
M  SAL  16  1  16
M  SED  16 [#6&h0]
M  SAL  17  1  17
M  SED  17 [#6&h0]
M  SAL  18  1  18
M  SED  18 [#6&h0]
M  SAL  19  1  19
M  SED  19 [#6&h0]
M  SAL  20  1  20
M  SED  20 [#6&h0]
M  SAL  21  1  21
M  SED  21 [#6&h0]
M  SAL  22  1  22
M  SED  22 [#1&h0]
M  SAL  23  1  23
M  SED  23 [#1&h0]
M  SAL  24  1  24
M  SED  24 [#1&h0]
M  SAL  25  1  25
M  SED  25 [#1&h0]
M  SAL  26  1  26
M  SED  26 [#1&h0]
M  SAL  27  1  27
M  SED  27 [#1&h0]
M  SAL  28  1  28
M  SED  28 [#1&h0]
M  SAL  29  1  29
M  SED  29 [#1&h0]
M  SAL  30  1  30
M  SED  30 [#1&h0]
M  SAL  31  1  31
M  SED  31 [#1&h0]
M  SAL  32  1  32
M  SED  32 [#1&h0]
M  SAL  33  1  33
M  SED  33 [#1&h0]
M  SAL  34  1  34
M  SED  34 [#1&h0]
M  SAL  35  1  35
M  SED  35 [#1&h0]
M  SAL  36  1  36
M  SED  36 [#1&h0]
M  SAL  37  1  37
M  SED  37 [#1&h0]
M  END
>  <Activity>  (92) 
0.01

>  <Mapped(file=2032.csv.activities,property=Cached(PUBCHEM_COMPOUND_CID))>  (92) 
100

>  <MatchIndices>  (92) 
17 

>  <PUBCHEM_ATOM_DEF_STEREO_COUNT>  (92) 
0

>  <PUBCHEM_ATOM_UDEF_STEREO_COUNT>  (92) 
0

>  <PUBCHEM_BONDANNOTATIONS>  (92) 
12  19  8
13  20  8
14  17  8
15  18  8
16  17  8
16  18  8
19  20  8
4  10  8
4  8  8
5  10  8
5  11  8
7  11  8
7  12  8
7  8  8
8  13  8
9  14  8
9  15  8

>  <PUBCHEM_BOND_DEF_STEREO_COUNT>  (92) 
0

>  <PUBCHEM_BOND_UDEF_STEREO_COUNT>  (92) 
0

>  <PUBCHEM_CACTVS_COMPLEXITY>  (92) 
319

>  <PUBCHEM_CACTVS_HBOND_ACCEPTOR>  (92) 
1

>  <PUBCHEM_CACTVS_HBOND_DONOR>  (92) 
3

>  <PUBCHEM_CACTVS_ROTATABLE_BOND>  (92) 
4

>  <PUBCHEM_CACTVS_SUBSKEYS>  (92) 
AAADceB7oAAEAAAAAAAAAAAAAAAAAAAAAAA8YIAAAAAAAACx9AAAHgAQAAAADAyhngIz9vbIFACgAyZiZACCiCkhIqAJmCA2bJiMLqLE+duGPCjs0BNI6CewwAAOAEAAAAACAAAAgAAAAAQAAAAAAAAAAA==

>  <PUBCHEM_CACTVS_TAUTO_COUNT>  (92) 
12

>  <PUBCHEM_CACTVS_TPSA>  (92) 
73.1

>  <PUBCHEM_COMPONENT_COUNT>  (92) 
2

>  <PUBCHEM_COMPOUND_CANONICALIZED>  (92) 
1

>  <PUBCHEM_COMPOUND_CID>  (92) 
2952997

>  <PUBCHEM_COORDINATE_TYPE>  (92) 
1
5
255

>  <PUBCHEM_EXACT_MASS>  (92) 
316.109089

>  <PUBCHEM_HEAVY_ATOM_COUNT>  (92) 
22

>  <PUBCHEM_ISOTOPIC_ATOM_COUNT>  (92) 
0

>  <PUBCHEM_IUPAC_CAS_NAME>  (92) 
N2-(4-ethoxyphenyl)quinazoline-2,4-diamine hydrochloride

>  <PUBCHEM_IUPAC_INCHI>  (92) 
InChI=1S/C16H16N4O.ClH/c1-2-21-12-9-7-11(8-10-12)18-16-19-14-6-4-3-5-13(14)15(17)20-16;/h3-10H,2H2,1H3,(H3,17,18,19,20);1H

>  <PUBCHEM_IUPAC_INCHIKEY>  (92) 
DEGSOOYBAVYDEO-UHFFFAOYSA-N

>  <PUBCHEM_IUPAC_NAME>  (92) 
2-N-(4-ethoxyphenyl)quinazoline-2,4-diamine hydrochloride

>  <PUBCHEM_IUPAC_OPENEYE_NAME>  (92) 
N2-(4-ethoxyphenyl)quinazoline-2,4-diamine hydrochloride

>  <PUBCHEM_IUPAC_SYSTEMATIC_NAME>  (92) 
N2-(4-ethoxyphenyl)quinazoline-2,4-diamine hydrochloride

>  <PUBCHEM_IUPAC_TRADITIONAL_NAME>  (92) 
(4-aminoquinazolin-2-yl)-p-phenetyl-amine hydrochloride

>  <PUBCHEM_MOLECULAR_FORMULA>  (92) 
C16H17ClN4O

>  <PUBCHEM_MOLECULAR_WEIGHT>  (92) 
316.78538

>  <PUBCHEM_MONOISOTOPIC_WEIGHT>  (92) 
316.109089

>  <PUBCHEM_OPENEYE_CAN_SMILES>  (92) 
CCOC1=CC=C(C=C1)NC2=NC3=CC=CC=C3C(=N2)N.Cl

>  <PUBCHEM_OPENEYE_ISO_SMILES>  (92) 
CCOC1=CC=C(C=C1)NC2=NC3=CC=CC=C3C(=N2)N.Cl

>  <PUBCHEM_TOTAL_CHARGE>  (92) 
0

$$$$
Largest isolated from Written by BCL::WriteToMDL,1480282
     RDKit          2D

 30 31  0 30  0  0  0  0  0  0999 V2000
    2.2023   -2.1019    0.0000 Cl  0  0  0  0  0  0  0  0  0  0  0  0
    3.2405    2.9895    0.0000 Cl  0  0  0  0  0  0  0  0  0  0  0  0
   -0.2181    1.0432    0.0000 S   0  0  0  0  0  0  0  0  0  0  0  0
   -3.3043   -1.3107    0.0000 S   0  0  0  0  0  0  0  0  0  0  0  0
   -2.7271    2.6626    0.0000 O   0  0  0  0  0  0  0  0  0  0  0  0
   -4.9663    1.3450    0.0000 N   0  0  0  0  0  0  0  0  0  0  0  0
    1.2516    0.7435    0.0000 C   0  0  0  0  0  0  0  0  0  0  0  0
    2.7214    0.4438    0.0000 C   0  0  0  0  0  0  0  0  0  0  0  0
   -1.2125   -0.0798    0.0000 C   0  0  0  0  0  0  0  0  0  0  0  0
   -2.7056    0.0646    0.0000 C   0  0  0  0  0  0  0  0  0  0  0  0
    3.1967   -0.9789    0.0000 C   0  0  0  0  0  0  0  0  0  0  0  0
    3.7158    1.5668    0.0000 C   0  0  0  0  0  0  0  0  0  0  0  0
   -0.8885   -1.5444    0.0000 C   0  0  0  0  0  0  0  0  0  0  0  0
    4.6665   -1.2786    0.0000 C   0  0  0  0  0  0  0  0  0  0  0  0
    5.1856    1.2671    0.0000 C   0  0  0  0  0  0  0  0  0  0  0  0
   -3.4663    1.3574    0.0000 C   0  0  0  0  0  0  0  0  0  0  0  0
   -2.1813   -2.3051    0.0000 C   0  0  0  0  0  0  0  0  0  0  0  0
    5.6609   -0.1556    0.0000 C   0  0  0  0  0  0  0  0  0  0  0  0
   -5.7055    0.0398    0.0000 C   0  0  0  0  0  0  0  0  0  0  0  0
    0.9519   -0.7262    0.0000 H   0  0  0  0  0  0  0  0  0  0  0  0
    1.5513    2.2133    0.0000 H   0  0  0  0  0  0  0  0  0  0  0  0
    0.4868   -2.1431    0.0000 H   0  0  0  0  0  0  0  0  0  0  0  0
    5.1418   -2.7012    0.0000 H   0  0  0  0  0  0  0  0  0  0  0  0
    6.1800    2.3901    0.0000 H   0  0  0  0  0  0  0  0  0  0  0  0
   -2.3257   -3.7981    0.0000 H   0  0  0  0  0  0  0  0  0  0  0  0
    7.1307   -0.4552    0.0000 H   0  0  0  0  0  0  0  0  0  0  0  0
   -5.7270    2.6378    0.0000 H   0  0  0  0  0  0  0  0  0  0  0  0
   -7.0107    0.7790    0.0000 H   0  0  0  0  0  0  0  0  0  0  0  0
   -4.4003   -0.6994    0.0000 H   0  0  0  0  0  0  0  0  0  0  0  0
   -6.4447   -1.2654    0.0000 H   0  0  0  0  0  0  0  0  0  0  0  0
  1 11  1  0
  2 12  1  0
  3  7  1  0
  3  9  1  0
  4 10  1  0
  4 17  1  0
  5 16  2  0
  6 16  1  0
  6 19  1  0
  6 27  1  0
  7  8  1  0
  7 20  1  0
  7 21  1  0
  8 11  2  0
  8 12  1  0
  9 10  2  0
  9 13  1  0
 10 16  1  0
 11 14  1  0
 12 15  2  0
 13 17  2  0
 13 22  1  0
 14 18  2  0
 14 23  1  0
 15 18  1  0
 15 24  1  0
 17 25  1  0
 18 26  1  0
 19 28  1  0
 19 29  1  0
 19 30  1  0
M  STY  8   1 DAT   2 DAT   3 DAT   4 DAT   5 DAT   6 DAT   7 DAT   8 DAT
M  STY  8   9 DAT  10 DAT  11 DAT  12 DAT  13 DAT  14 DAT  15 DAT  16 DAT
M  STY  8  17 DAT  18 DAT  19 DAT  20 DAT  21 DAT  22 DAT  23 DAT  24 DAT
M  STY  6  25 DAT  26 DAT  27 DAT  28 DAT  29 DAT  30 DAT
M  SAL   1  1   1
M  SED   1 [#17&h0]
M  SAL   2  1   2
M  SED   2 [#17&h0]
M  SAL   3  1   3
M  SED   3 [#16&h0]
M  SAL   4  1   4
M  SED   4 [#16&h0]
M  SAL   5  1   5
M  SED   5 [#8&h0]
M  SAL   6  1   6
M  SED   6 [#7&h0]
M  SAL   7  1   7
M  SED   7 [#6&h0]
M  SAL   8  1   8
M  SED   8 [#6&h0]
M  SAL   9  1   9
M  SED   9 [#6&h0]
M  SAL  10  1  10
M  SED  10 [#6&h0]
M  SAL  11  1  11
M  SED  11 [#6&h0]
M  SAL  12  1  12
M  SED  12 [#6&h0]
M  SAL  13  1  13
M  SED  13 [#6&h0]
M  SAL  14  1  14
M  SED  14 [#6&h0]
M  SAL  15  1  15
M  SED  15 [#6&h0]
M  SAL  16  1  16
M  SED  16 [#6&h0]
M  SAL  17  1  17
M  SED  17 [#6&h0]
M  SAL  18  1  18
M  SED  18 [#6&h0]
M  SAL  19  1  19
M  SED  19 [#6&h0]
M  SAL  20  1  20
M  SED  20 [#1&h0]
M  SAL  21  1  21
M  SED  21 [#1&h0]
M  SAL  22  1  22
M  SED  22 [#1&h0]
M  SAL  23  1  23
M  SED  23 [#1&h0]
M  SAL  24  1  24
M  SED  24 [#1&h0]
M  SAL  25  1  25
M  SED  25 [#1&h0]
M  SAL  26  1  26
M  SED  26 [#1&h0]
M  SAL  27  1  27
M  SED  27 [#1&h0]
M  SAL  28  1  28
M  SED  28 [#1&h0]
M  SAL  29  1  29
M  SED  29 [#1&h0]
M  SAL  30  1  30
M  SED  30 [#1&h0]
M  END
>  <Activity>  (93) 
0.01

>  <Mapped(file=2032.csv.activities,property=Cached(PUBCHEM_COMPOUND_CID))>  (93) 
100

>  <MatchIndices>  (93) 
74 

>  <PUBCHEM_ATOM_DEF_STEREO_COUNT>  (93) 
0

>  <PUBCHEM_ATOM_UDEF_STEREO_COUNT>  (93) 
0

>  <PUBCHEM_BONDANNOTATIONS>  (93) 
11  14  8
12  15  8
13  17  8
14  18  8
15  18  8
4  10  8
4  17  8
8  11  8
8  12  8
9  10  8
9  13  8

>  <PUBCHEM_BOND_DEF_STEREO_COUNT>  (93) 
0

>  <PUBCHEM_BOND_UDEF_STEREO_COUNT>  (93) 
0

>  <PUBCHEM_CACTVS_COMPLEXITY>  (93) 
309

>  <PUBCHEM_CACTVS_HBOND_ACCEPTOR>  (93) 
3

>  <PUBCHEM_CACTVS_HBOND_DONOR>  (93) 
1

>  <PUBCHEM_CACTVS_ROTATABLE_BOND>  (93) 
4

>  <PUBCHEM_CACTVS_SUBSKEYS>  (93) 
AAADccByIABmAAAAAAAAAAAAAAAAASAAAAAwAAAAAAAAAAABwAAAHgYQAAAADAKF2CSyAYLAAAiMAiFSEACDAIAkDRBIiJkIBsgIIDKhlxGEIQhgggAoiQcYgAAOAAAAAACBAAAAAAAAAQIAAAAAAAAAAA==

>  <PUBCHEM_CACTVS_TAUTO_COUNT>  (93) 
2

>  <PUBCHEM_CACTVS_TPSA>  (93) 
82.6

>  <PUBCHEM_COMPONENT_COUNT>  (93) 
1

>  <PUBCHEM_COMPOUND_CANONICALIZED>  (93) 
1

>  <PUBCHEM_COMPOUND_CID>  (93) 
1480282

>  <PUBCHEM_COORDINATE_TYPE>  (93) 
1
5
255

>  <PUBCHEM_EXACT_MASS>  (93) 
330.965911

>  <PUBCHEM_HEAVY_ATOM_COUNT>  (93) 
19

>  <PUBCHEM_ISOTOPIC_ATOM_COUNT>  (93) 
0

>  <PUBCHEM_IUPAC_CAS_NAME>  (93) 
3-[(2,6-dichlorophenyl)methylthio]-N-methyl-2-thiophenecarboxamide

>  <PUBCHEM_IUPAC_INCHI>  (93) 
InChI=1S/C13H11Cl2NOS2/c1-16-13(17)12-11(5-6-18-12)19-7-8-9(14)3-2-4-10(8)15/h2-6H,7H2,1H3,(H,16,17)

>  <PUBCHEM_IUPAC_INCHIKEY>  (93) 
GJIDJZFFJQXZJF-UHFFFAOYSA-N

>  <PUBCHEM_IUPAC_NAME>  (93) 
3-[(2,6-dichlorophenyl)methylsulfanyl]-N-methylthiophene-2-carboxamide

>  <PUBCHEM_IUPAC_OPENEYE_NAME>  (93) 
3-[(2,6-dichlorophenyl)methylsulfanyl]-N-methyl-thiophene-2-carboxamide

>  <PUBCHEM_IUPAC_SYSTEMATIC_NAME>  (93) 
3-[[2,6-bis(chloranyl)phenyl]methylsulfanyl]-N-methyl-thiophene-2-carboxamide

>  <PUBCHEM_IUPAC_TRADITIONAL_NAME>  (93) 
3-[(2,6-dichlorobenzyl)thio]-N-methyl-thiophene-2-carboxamide

>  <PUBCHEM_MOLECULAR_FORMULA>  (93) 
C13H11Cl2NOS2

>  <PUBCHEM_MOLECULAR_WEIGHT>  (93) 
332.26854

>  <PUBCHEM_MONOISOTOPIC_WEIGHT>  (93) 
330.965911

>  <PUBCHEM_OPENEYE_CAN_SMILES>  (93) 
CNC(=O)C1=C(C=CS1)SCC2=C(C=CC=C2Cl)Cl

>  <PUBCHEM_OPENEYE_ISO_SMILES>  (93) 
CNC(=O)C1=C(C=CS1)SCC2=C(C=CC=C2Cl)Cl

>  <PUBCHEM_TOTAL_CHARGE>  (93) 
0

>  <PUBCHEM_XLOGP3_AA>  (93) 
4.5

$$$$
Largest isolated from Written by BCL::WriteToMDL,6323818
     RDKit          2D

 41 43  0 41  0  0  0  0  0  0999 V2000
   -1.2752    0.8594    0.0000 S   0  0  0  0  0  0  0  0  0  0  0  0
    3.5411   -3.6030    0.0000 O   0  0  0  0  0  0  0  0  0  0  0  0
    1.3422    0.3169    0.0000 N   0  0  0  0  0  0  0  0  0  0  0  0
    1.2275   -2.1074    0.0000 N   0  0  0  0  0  0  0  0  0  0  0  0
   -0.1756   -1.5770    0.0000 N   0  0  0  0  0  0  0  0  0  0  0  0
   -8.9795    2.0396    0.0000 N   0  0  0  0  0  0  0  0  0  0  0  0
    2.1656   -0.9369    0.0000 C   0  0  0  0  0  0  0  0  0  0  0  0
   -0.1047   -0.0786    0.0000 C   0  0  0  0  0  0  0  0  0  0  0  0
    1.8727    1.7200    0.0000 C   0  0  0  0  0  0  0  0  0  0  0  0
    3.6639   -1.0078    0.0000 C   0  0  0  0  0  0  0  0  0  0  0  0
   -2.6728    0.3148    0.0000 C   0  0  0  0  0  0  0  0  0  0  0  0
    4.3516   -2.3408    0.0000 C   0  0  0  0  0  0  0  0  0  0  0  0
    4.4744    0.2543    0.0000 C   0  0  0  0  0  0  0  0  0  0  0  0
   -4.0704   -0.2299    0.0000 C   0  0  0  0  0  0  0  0  0  0  0  0
    2.4031    3.1231    0.0000 C   0  0  0  0  0  0  0  0  0  0  0  0
    5.8500   -2.4117    0.0000 C   0  0  0  0  0  0  0  0  0  0  0  0
    5.9728    0.1834    0.0000 C   0  0  0  0  0  0  0  0  0  0  0  0
   -5.2409    0.7082    0.0000 C   0  0  0  0  0  0  0  0  0  0  0  0
   -4.2976   -1.7126    0.0000 C   0  0  0  0  0  0  0  0  0  0  0  0
    6.6605   -1.1496    0.0000 C   0  0  0  0  0  0  0  0  0  0  0  0
   -6.6385    0.1635    0.0000 C   0  0  0  0  0  0  0  0  0  0  0  0
   -5.6952   -2.2572    0.0000 C   0  0  0  0  0  0  0  0  0  0  0  0
   -6.8657   -1.3192    0.0000 C   0  0  0  0  0  0  0  0  0  0  0  0
    1.4532    4.2840    0.0000 C   0  0  0  0  0  0  0  0  0  0  0  0
   -7.8090    1.1016    0.0000 C   0  0  0  0  0  0  0  0  0  0  0  0
    3.0531    1.4321    0.0000 H   0  0  0  0  0  0  0  0  0  0  0  0
    0.4696    2.2505    0.0000 H   0  0  0  0  0  0  0  0  0  0  0  0
    1.6231   -3.5543    0.0000 H   0  0  0  0  0  0  0  0  0  0  0  0
   -3.2175    1.7124    0.0000 H   0  0  0  0  0  0  0  0  0  0  0  0
   -2.1281   -1.0829    0.0000 H   0  0  0  0  0  0  0  0  0  0  0  0
    4.0531    1.3940    0.0000 H   0  0  0  0  0  0  0  0  0  0  0  0
    3.8834    3.3653    0.0000 H   0  0  0  0  0  0  0  0  0  0  0  0
    6.5377   -3.7448    0.0000 H   0  0  0  0  0  0  0  0  0  0  0  0
    6.7833    1.4456    0.0000 H   0  0  0  0  0  0  0  0  0  0  0  0
   -5.0138    2.1909    0.0000 H   0  0  0  0  0  0  0  0  0  0  0  0
   -3.1271   -2.6506    0.0000 H   0  0  0  0  0  0  0  0  0  0  0  0
    8.1588   -1.2205    0.0000 H   0  0  0  0  0  0  0  0  0  0  0  0
   -5.9223   -3.7399    0.0000 H   0  0  0  0  0  0  0  0  0  0  0  0
   -8.2633   -1.8638    0.0000 H   0  0  0  0  0  0  0  0  0  0  0  0
    1.9836    5.6871    0.0000 H   0  0  0  0  0  0  0  0  0  0  0  0
   -0.0271    4.0419    0.0000 H   0  0  0  0  0  0  0  0  0  0  0  0
  1  8  1  0
  1 11  1  0
  2 12  2  0
  3  7  1  0
  3  8  1  0
  3  9  1  0
  4  5  1  0
  4  7  1  0
  4 28  1  0
  5  8  2  0
  6 25  3  0
  7 10  2  0
  9 15  1  0
  9 26  1  0
  9 27  1  0
 10 12  1  0
 10 13  1  0
 11 14  1  0
 11 29  1  0
 11 30  1  0
 12 16  1  0
 13 17  2  0
 13 31  1  0
 14 18  2  0
 14 19  1  0
 15 24  2  0
 15 32  1  0
 16 20  2  0
 16 33  1  0
 17 20  1  0
 17 34  1  0
 18 21  1  0
 18 35  1  0
 19 22  2  0
 19 36  1  0
 20 37  1  0
 21 23  2  0
 21 25  1  0
 22 23  1  0
 22 38  1  0
 23 39  1  0
 24 40  1  0
 24 41  1  0
M  STY  8   1 DAT   2 DAT   3 DAT   4 DAT   5 DAT   6 DAT   7 DAT   8 DAT
M  STY  8   9 DAT  10 DAT  11 DAT  12 DAT  13 DAT  14 DAT  15 DAT  16 DAT
M  STY  8  17 DAT  18 DAT  19 DAT  20 DAT  21 DAT  22 DAT  23 DAT  24 DAT
M  STY  8  25 DAT  26 DAT  27 DAT  28 DAT  29 DAT  30 DAT  31 DAT  32 DAT
M  STY  8  33 DAT  34 DAT  35 DAT  36 DAT  37 DAT  38 DAT  39 DAT  40 DAT
M  STY  1  41 DAT
M  SAL   1  1   1
M  SED   1 [#16&h0]
M  SAL   2  1   2
M  SED   2 [#8&h0]
M  SAL   3  1   3
M  SED   3 [#7&h0]
M  SAL   4  1   4
M  SED   4 [#7&h0]
M  SAL   5  1   5
M  SED   5 [#7&h0]
M  SAL   6  1   6
M  SED   6 [#7&h0]
M  SAL   7  1   7
M  SED   7 [#6&h0]
M  SAL   8  1   8
M  SED   8 [#6&h0]
M  SAL   9  1   9
M  SED   9 [#6&h0]
M  SAL  10  1  10
M  SED  10 [#6&h0]
M  SAL  11  1  11
M  SED  11 [#6&h0]
M  SAL  12  1  12
M  SED  12 [#6&h0]
M  SAL  13  1  13
M  SED  13 [#6&h0]
M  SAL  14  1  14
M  SED  14 [#6&h0]
M  SAL  15  1  15
M  SED  15 [#6&h0]
M  SAL  16  1  16
M  SED  16 [#6&h0]
M  SAL  17  1  17
M  SED  17 [#6&h0]
M  SAL  18  1  18
M  SED  18 [#6&h0]
M  SAL  19  1  19
M  SED  19 [#6&h0]
M  SAL  20  1  20
M  SED  20 [#6&h0]
M  SAL  21  1  21
M  SED  21 [#6&h0]
M  SAL  22  1  22
M  SED  22 [#6&h0]
M  SAL  23  1  23
M  SED  23 [#6&h0]
M  SAL  24  1  24
M  SED  24 [#6&h0]
M  SAL  25  1  25
M  SED  25 [#6&h0]
M  SAL  26  1  26
M  SED  26 [#1&h0]
M  SAL  27  1  27
M  SED  27 [#1&h0]
M  SAL  28  1  28
M  SED  28 [#1&h0]
M  SAL  29  1  29
M  SED  29 [#1&h0]
M  SAL  30  1  30
M  SED  30 [#1&h0]
M  SAL  31  1  31
M  SED  31 [#1&h0]
M  SAL  32  1  32
M  SED  32 [#1&h0]
M  SAL  33  1  33
M  SED  33 [#1&h0]
M  SAL  34  1  34
M  SED  34 [#1&h0]
M  SAL  35  1  35
M  SED  35 [#1&h0]
M  SAL  36  1  36
M  SED  36 [#1&h0]
M  SAL  37  1  37
M  SED  37 [#1&h0]
M  SAL  38  1  38
M  SED  38 [#1&h0]
M  SAL  39  1  39
M  SED  39 [#1&h0]
M  SAL  40  1  40
M  SED  40 [#1&h0]
M  SAL  41  1  41
M  SED  41 [#1&h0]
M  END
>  <Activity>  (94) 
0.01

>  <Mapped(file=2032.csv.activities,property=Cached(PUBCHEM_COMPOUND_CID))>  (94) 
100

>  <MatchIndices>  (94) 
142 

>  <PUBCHEM_ATOM_DEF_STEREO_COUNT>  (94) 
0

>  <PUBCHEM_ATOM_UDEF_STEREO_COUNT>  (94) 
0

>  <PUBCHEM_BONDANNOTATIONS>  (94) 
14  18  8
14  19  8
18  21  8
19  22  8
21  23  8
22  23  8

>  <PUBCHEM_BOND_DEF_STEREO_COUNT>  (94) 
1

>  <PUBCHEM_BOND_UDEF_STEREO_COUNT>  (94) 
0

>  <PUBCHEM_CACTVS_COMPLEXITY>  (94) 
725

>  <PUBCHEM_CACTVS_HBOND_ACCEPTOR>  (94) 
5

>  <PUBCHEM_CACTVS_HBOND_DONOR>  (94) 
1

>  <PUBCHEM_CACTVS_ROTATABLE_BOND>  (94) 
5

>  <PUBCHEM_CACTVS_SUBSKEYS>  (94) 
AAADceB7oABAAAAAAAAAAAAAAAAAAQAAAAAwQAAAAAAAAAABAAAAHgQYAAAADATF2ASxAINiAAi4BqBSYACyAABgABANiAEIAMiIoCKgGRCAIAAggAIIic8AgEAOAAACAAAAAAAAAAQAAAAAAAAAAAAAAA==

>  <PUBCHEM_CACTVS_TAUTO_COUNT>  (94) 
4

>  <PUBCHEM_CACTVS_TPSA>  (94) 
93.8

>  <PUBCHEM_COMPONENT_COUNT>  (94) 
1

>  <PUBCHEM_COMPOUND_CANONICALIZED>  (94) 
1

>  <PUBCHEM_COMPOUND_CID>  (94) 
6323818

>  <PUBCHEM_COORDINATE_TYPE>  (94) 
1
5
255

>  <PUBCHEM_EXACT_MASS>  (94) 
348.104482

>  <PUBCHEM_HEAVY_ATOM_COUNT>  (94) 
25

>  <PUBCHEM_ISOTOPIC_ATOM_COUNT>  (94) 
0

>  <PUBCHEM_IUPAC_CAS_NAME>  (94) 
3-[[[(5Z)-5-(6-oxo-1-cyclohexa-2,4-dienylidene)-4-prop-2-enyl-1H-1,2,4-triazol-3-yl]thio]methyl]benzonitrile

>  <PUBCHEM_IUPAC_INCHI>  (94) 
InChI=1S/C19H16N4OS/c1-2-10-23-18(16-8-3-4-9-17(16)24)21-22-19(23)25-13-15-7-5-6-14(11-15)12-20/h2-9,11,21H,1,10,13H2/b18-16+

>  <PUBCHEM_IUPAC_INCHIKEY>  (94) 
YPPORRLROSTXFU-FBMGVBCBSA-N

>  <PUBCHEM_IUPAC_NAME>  (94) 
3-[[(5Z)-5-(6-oxocyclohexa-2,4-dien-1-ylidene)-4-prop-2-enyl-1H-1,2,4-triazol-3-yl]sulfanylmethyl]benzonitrile

>  <PUBCHEM_IUPAC_OPENEYE_NAME>  (94) 
3-[[(5Z)-4-allyl-5-(6-oxocyclohexa-2,4-dien-1-ylidene)-1H-1,2,4-triazol-3-yl]sulfanylmethyl]benzonitrile

>  <PUBCHEM_IUPAC_SYSTEMATIC_NAME>  (94) 
3-[[(5Z)-5-(6-oxidanylidenecyclohexa-2,4-dien-1-ylidene)-4-prop-2-enyl-1H-1,2,4-triazol-3-yl]sulfanylmethyl]benzenecarbonitrile

>  <PUBCHEM_IUPAC_TRADITIONAL_NAME>  (94) 
3-[[[(5Z)-4-allyl-5-(6-ketocyclohexa-2,4-dien-1-ylidene)-1H-1,2,4-triazol-3-yl]thio]methyl]benzonitrile

>  <PUBCHEM_MOLECULAR_FORMULA>  (94) 
C19H16N4OS

>  <PUBCHEM_MOLECULAR_WEIGHT>  (94) 
348.42154

>  <PUBCHEM_MONOISOTOPIC_WEIGHT>  (94) 
348.104482

>  <PUBCHEM_OPENEYE_CAN_SMILES>  (94) 
C=CCN1C(=C2C=CC=CC2=O)NN=C1SCC3=CC=CC(=C3)C#N

>  <PUBCHEM_OPENEYE_ISO_SMILES>  (94) 
C=CCN1/C(=C/2\C=CC=CC2=O)/NN=C1SCC3=CC=CC(=C3)C#N

>  <PUBCHEM_TOTAL_CHARGE>  (94) 
0

>  <PUBCHEM_XLOGP3_AA>  (94) 
3.7

$$$$
Largest isolated from Written by BCL::WriteToMDL,8232846
     RDKit          2D

 45 47  0 45  0  0  0  0  0  0999 V2000
   -0.8437    2.7971    0.0000 O   0  0  0  0  0  0  0  0  0  0  0  0
   -4.6296    1.6069    0.0000 O   0  0  0  0  0  0  0  0  0  0  0  0
    3.4562   -0.4833    0.0000 N   0  0  0  0  0  0  0  0  0  0  0  0
    0.7038    0.7102    0.0000 N   0  0  0  0  0  0  0  0  0  0  0  0
    2.9748   -2.8621    0.0000 C   0  0  0  0  0  0  0  0  0  0  0  0
    4.4650   -2.6908    0.0000 C   0  0  0  0  0  0  0  0  0  0  0  0
    2.3514   -1.4978    0.0000 C   0  0  0  0  0  0  0  0  0  0  0  0
    4.7625   -1.2206    0.0000 C   0  0  0  0  0  0  0  0  0  0  0  0
    3.2849    1.0069    0.0000 C   0  0  0  0  0  0  0  0  0  0  0  0
    1.9087    1.6036    0.0000 C   0  0  0  0  0  0  0  0  0  0  0  0
    4.4898    1.9004    0.0000 C   0  0  0  0  0  0  0  0  0  0  0  0
    1.7374    3.0938    0.0000 C   0  0  0  0  0  0  0  0  0  0  0  0
    4.3185    3.3905    0.0000 C   0  0  0  0  0  0  0  0  0  0  0  0
    2.9423    3.9873    0.0000 C   0  0  0  0  0  0  0  0  0  0  0  0
   -0.6724    1.3069    0.0000 C   0  0  0  0  0  0  0  0  0  0  0  0
   -1.8772    0.4134    0.0000 C   0  0  0  0  0  0  0  0  0  0  0  0
   -3.0821   -0.4801    0.0000 C   0  0  0  0  0  0  0  0  0  0  0  0
   -4.4583    0.1167    0.0000 C   0  0  0  0  0  0  0  0  0  0  0  0
   -2.9108   -1.9702    0.0000 C   0  0  0  0  0  0  0  0  0  0  0  0
   -5.6632   -0.7768    0.0000 C   0  0  0  0  0  0  0  0  0  0  0  0
   -4.1157   -2.8637    0.0000 C   0  0  0  0  0  0  0  0  0  0  0  0
   -5.4919   -2.2670    0.0000 C   0  0  0  0  0  0  0  0  0  0  0  0
   -6.0058    2.2036    0.0000 C   0  0  0  0  0  0  0  0  0  0  0  0
    5.9582   -2.8330    0.0000 H   0  0  0  0  0  0  0  0  0  0  0  0
    4.4796   -4.1907    0.0000 H   0  0  0  0  0  0  0  0  0  0  0  0
    3.3009   -4.3262    0.0000 H   0  0  0  0  0  0  0  0  0  0  0  0
    1.5528   -3.3395    0.0000 H   0  0  0  0  0  0  0  0  0  0  0  0
    5.3592    0.1556    0.0000 H   0  0  0  0  0  0  0  0  0  0  0  0
    6.1936   -1.6702    0.0000 H   0  0  0  0  0  0  0  0  0  0  0  0
    1.0597   -2.2604    0.0000 H   0  0  0  0  0  0  0  0  0  0  0  0
    1.5978   -0.7054    0.0000 H   0  0  0  0  0  0  0  0  0  0  0  0
    5.8660    1.3036    0.0000 H   0  0  0  0  0  0  0  0  0  0  0  0
    0.3612    3.6905    0.0000 H   0  0  0  0  0  0  0  0  0  0  0  0
    0.6954   -0.3833    0.0000 H   0  0  0  0  0  0  0  0  0  0  0  0
    5.5233    4.2840    0.0000 H   0  0  0  0  0  0  0  0  0  0  0  0
    2.7709    5.4774    0.0000 H   0  0  0  0  0  0  0  0  0  0  0  0
   -2.7707    1.6183    0.0000 H   0  0  0  0  0  0  0  0  0  0  0  0
   -0.9838   -0.7915    0.0000 H   0  0  0  0  0  0  0  0  0  0  0  0
   -1.5346   -2.5670    0.0000 H   0  0  0  0  0  0  0  0  0  0  0  0
   -7.0394   -0.1801    0.0000 H   0  0  0  0  0  0  0  0  0  0  0  0
   -3.9443   -4.3539    0.0000 H   0  0  0  0  0  0  0  0  0  0  0  0
   -6.6967   -3.1604    0.0000 H   0  0  0  0  0  0  0  0  0  0  0  0
   -5.4091    3.5798    0.0000 H   0  0  0  0  0  0  0  0  0  0  0  0
   -6.6026    0.8274    0.0000 H   0  0  0  0  0  0  0  0  0  0  0  0
   -7.3820    2.8003    0.0000 H   0  0  0  0  0  0  0  0  0  0  0  0
  1 15  2  0
  2 18  1  0
  2 23  1  0
  3  7  1  0
  3  8  1  0
  3  9  1  0
  4 10  1  0
  4 15  1  0
  4 34  1  0
  5  6  1  0
  5  7  1  0
  5 26  1  0
  5 27  1  0
  6  8  1  0
  6 24  1  0
  6 25  1  0
  7 30  1  0
  7 31  1  0
  8 28  1  0
  8 29  1  0
  9 10  1  0
  9 11  2  0
 10 12  2  0
 11 13  1  0
 11 32  1  0
 12 14  1  0
 12 33  1  0
 13 14  2  0
 13 35  1  0
 14 36  1  0
 15 16  1  0
 16 17  1  0
 16 37  1  0
 16 38  1  0
 17 18  2  0
 17 19  1  0
 18 20  1  0
 19 21  2  0
 19 39  1  0
 20 22  2  0
 20 40  1  0
 21 22  1  0
 21 41  1  0
 22 42  1  0
 23 43  1  0
 23 44  1  0
 23 45  1  0
M  STY  8   1 DAT   2 DAT   3 DAT   4 DAT   5 DAT   6 DAT   7 DAT   8 DAT
M  STY  8   9 DAT  10 DAT  11 DAT  12 DAT  13 DAT  14 DAT  15 DAT  16 DAT
M  STY  8  17 DAT  18 DAT  19 DAT  20 DAT  21 DAT  22 DAT  23 DAT  24 DAT
M  STY  8  25 DAT  26 DAT  27 DAT  28 DAT  29 DAT  30 DAT  31 DAT  32 DAT
M  STY  8  33 DAT  34 DAT  35 DAT  36 DAT  37 DAT  38 DAT  39 DAT  40 DAT
M  STY  5  41 DAT  42 DAT  43 DAT  44 DAT  45 DAT
M  SAL   1  1   1
M  SED   1 [#8&h0]
M  SAL   2  1   2
M  SED   2 [#8&h0]
M  SAL   3  1   3
M  SED   3 [#7&h0]
M  SAL   4  1   4
M  SED   4 [#7&h0]
M  SAL   5  1   5
M  SED   5 [#6&h0]
M  SAL   6  1   6
M  SED   6 [#6&h0]
M  SAL   7  1   7
M  SED   7 [#6&h0]
M  SAL   8  1   8
M  SED   8 [#6&h0]
M  SAL   9  1   9
M  SED   9 [#6&h0]
M  SAL  10  1  10
M  SED  10 [#6&h0]
M  SAL  11  1  11
M  SED  11 [#6&h0]
M  SAL  12  1  12
M  SED  12 [#6&h0]
M  SAL  13  1  13
M  SED  13 [#6&h0]
M  SAL  14  1  14
M  SED  14 [#6&h0]
M  SAL  15  1  15
M  SED  15 [#6&h0]
M  SAL  16  1  16
M  SED  16 [#6&h0]
M  SAL  17  1  17
M  SED  17 [#6&h0]
M  SAL  18  1  18
M  SED  18 [#6&h0]
M  SAL  19  1  19
M  SED  19 [#6&h0]
M  SAL  20  1  20
M  SED  20 [#6&h0]
M  SAL  21  1  21
M  SED  21 [#6&h0]
M  SAL  22  1  22
M  SED  22 [#6&h0]
M  SAL  23  1  23
M  SED  23 [#6&h0]
M  SAL  24  1  24
M  SED  24 [#1&h0]
M  SAL  25  1  25
M  SED  25 [#1&h0]
M  SAL  26  1  26
M  SED  26 [#1&h0]
M  SAL  27  1  27
M  SED  27 [#1&h0]
M  SAL  28  1  28
M  SED  28 [#1&h0]
M  SAL  29  1  29
M  SED  29 [#1&h0]
M  SAL  30  1  30
M  SED  30 [#1&h0]
M  SAL  31  1  31
M  SED  31 [#1&h0]
M  SAL  32  1  32
M  SED  32 [#1&h0]
M  SAL  33  1  33
M  SED  33 [#1&h0]
M  SAL  34  1  34
M  SED  34 [#1&h0]
M  SAL  35  1  35
M  SED  35 [#1&h0]
M  SAL  36  1  36
M  SED  36 [#1&h0]
M  SAL  37  1  37
M  SED  37 [#1&h0]
M  SAL  38  1  38
M  SED  38 [#1&h0]
M  SAL  39  1  39
M  SED  39 [#1&h0]
M  SAL  40  1  40
M  SED  40 [#1&h0]
M  SAL  41  1  41
M  SED  41 [#1&h0]
M  SAL  42  1  42
M  SED  42 [#1&h0]
M  SAL  43  1  43
M  SED  43 [#1&h0]
M  SAL  44  1  44
M  SED  44 [#1&h0]
M  SAL  45  1  45
M  SED  45 [#1&h0]
M  END
>  <Activity>  (95) 
0.01

>  <Mapped(file=2032.csv.activities,property=Cached(PUBCHEM_COMPOUND_CID))>  (95) 
100

>  <MatchIndices>  (95) 
91 

>  <PUBCHEM_ATOM_DEF_STEREO_COUNT>  (95) 
0

>  <PUBCHEM_ATOM_UDEF_STEREO_COUNT>  (95) 
0

>  <PUBCHEM_BONDANNOTATIONS>  (95) 
10  12  8
11  13  8
12  14  8
13  14  8
17  18  8
17  19  8
18  20  8
19  21  8
20  22  8
21  22  8
9  10  8
9  11  8

>  <PUBCHEM_BOND_DEF_STEREO_COUNT>  (95) 
0

>  <PUBCHEM_BOND_UDEF_STEREO_COUNT>  (95) 
0

>  <PUBCHEM_CACTVS_COMPLEXITY>  (95) 
382

>  <PUBCHEM_CACTVS_HBOND_ACCEPTOR>  (95) 
3

>  <PUBCHEM_CACTVS_HBOND_DONOR>  (95) 
1

>  <PUBCHEM_CACTVS_ROTATABLE_BOND>  (95) 
5

>  <PUBCHEM_CACTVS_SUBSKEYS>  (95) 
AAADceB7MAAAAAAAAAAAAAAAAAAAAWAAAAAwYAAAAAAAAAABQAAAHgAQAAAADAzBmAYyxoPABACIAiVSUACCCAAhIgAIiAEOfIgMZjLEtZuUMChk1BHI6Ae6yKCOAAAAAAAIACAAAAAAABAAQAAAAAAAAA==

>  <PUBCHEM_CACTVS_TAUTO_COUNT>  (95) 
3

>  <PUBCHEM_CACTVS_TPSA>  (95) 
41.6

>  <PUBCHEM_COMPONENT_COUNT>  (95) 
1

>  <PUBCHEM_COMPOUND_CANONICALIZED>  (95) 
1

>  <PUBCHEM_COMPOUND_CID>  (95) 
8232846

>  <PUBCHEM_COORDINATE_TYPE>  (95) 
1
5
255

>  <PUBCHEM_EXACT_MASS>  (95) 
310.168128

>  <PUBCHEM_HEAVY_ATOM_COUNT>  (95) 
23

>  <PUBCHEM_ISOTOPIC_ATOM_COUNT>  (95) 
0

>  <PUBCHEM_IUPAC_CAS_NAME>  (95) 
2-(2-methoxyphenyl)-N-[2-(1-pyrrolidinyl)phenyl]acetamide

>  <PUBCHEM_IUPAC_INCHI>  (95) 
InChI=1S/C19H22N2O2/c1-23-18-11-5-2-8-15(18)14-19(22)20-16-9-3-4-10-17(16)21-12-6-7-13-21/h2-5,8-11H,6-7,12-14H2,1H3,(H,20,22)

>  <PUBCHEM_IUPAC_INCHIKEY>  (95) 
BQHWWVGVCNKUTC-UHFFFAOYSA-N

>  <PUBCHEM_IUPAC_NAME>  (95) 
2-(2-methoxyphenyl)-N-(2-pyrrolidin-1-ylphenyl)acetamide

>  <PUBCHEM_IUPAC_OPENEYE_NAME>  (95) 
2-(2-methoxyphenyl)-N-(2-pyrrolidin-1-ylphenyl)acetamide

>  <PUBCHEM_IUPAC_SYSTEMATIC_NAME>  (95) 
2-(2-methoxyphenyl)-N-(2-pyrrolidin-1-ylphenyl)ethanamide

>  <PUBCHEM_IUPAC_TRADITIONAL_NAME>  (95) 
2-(2-methoxyphenyl)-N-(2-pyrrolidinophenyl)acetamide

>  <PUBCHEM_MOLECULAR_FORMULA>  (95) 
C19H22N2O2

>  <PUBCHEM_MOLECULAR_WEIGHT>  (95) 
310.39018

>  <PUBCHEM_MONOISOTOPIC_WEIGHT>  (95) 
310.168128

>  <PUBCHEM_OPENEYE_CAN_SMILES>  (95) 
COC1=CC=CC=C1CC(=O)NC2=CC=CC=C2N3CCCC3

>  <PUBCHEM_OPENEYE_ISO_SMILES>  (95) 
COC1=CC=CC=C1CC(=O)NC2=CC=CC=C2N3CCCC3

>  <PUBCHEM_TOTAL_CHARGE>  (95) 
0

>  <PUBCHEM_XLOGP3_AA>  (95) 
3.3

$$$$
Largest isolated from Written by BCL::WriteToMDL,23723102
     RDKit          2D

 51 52  0 51  0  0  0  0  0  0999 V2000
   -5.8578    0.0018    0.0000 N   0  0  0  0  0  0  0  0  0  0  0  0
    0.0566    1.0117    0.0000 C   0  0  0  0  0  0  0  0  0  0  0  0
    1.5352    1.2642    0.0000 C   0  0  0  0  0  0  0  0  0  0  0  0
   -1.4220    0.7593    0.0000 C   0  0  0  0  0  0  0  0  0  0  0  0
    1.7877   -0.2144    0.0000 C   0  0  0  0  0  0  0  0  0  0  0  0
   -2.9006    0.5068    0.0000 C   0  0  0  0  0  0  0  0  0  0  0  0
    3.0138    1.5167    0.0000 C   0  0  0  0  0  0  0  0  0  0  0  0
   -0.1958    2.4903    0.0000 C   0  0  0  0  0  0  0  0  0  0  0  0
   -4.3792    0.2543    0.0000 C   0  0  0  0  0  0  0  0  0  0  0  0
    2.0402   -1.6930    0.0000 C   0  0  0  0  0  0  0  0  0  0  0  0
    3.9718    0.3624    0.0000 C   0  0  0  0  0  0  0  0  0  0  0  0
    3.5345    2.9234    0.0000 C   0  0  0  0  0  0  0  0  0  0  0  0
    0.8859   -2.6509    0.0000 C   0  0  0  0  0  0  0  0  0  0  0  0
    3.4469   -2.2137    0.0000 C   0  0  0  0  0  0  0  0  0  0  0  0
    5.4504    0.6149    0.0000 C   0  0  0  0  0  0  0  0  0  0  0  0
    5.0131    3.1759    0.0000 C   0  0  0  0  0  0  0  0  0  0  0  0
    5.9710    2.0216    0.0000 C   0  0  0  0  0  0  0  0  0  0  0  0
   -6.3784   -1.4049    0.0000 C   0  0  0  0  0  0  0  0  0  0  0  0
   -6.8157    1.1561    0.0000 C   0  0  0  0  0  0  0  0  0  0  0  0
    1.1384   -4.1295    0.0000 C   0  0  0  0  0  0  0  0  0  0  0  0
    3.6994   -3.6923    0.0000 C   0  0  0  0  0  0  0  0  0  0  0  0
    2.5451   -4.6502    0.0000 C   0  0  0  0  0  0  0  0  0  0  0  0
    0.0982    0.1270    0.0000 H   0  0  0  0  0  0  0  0  0  0  0  0
    1.4937    2.1490    0.0000 H   0  0  0  0  0  0  0  0  0  0  0  0
   -1.6764    1.6077    0.0000 H   0  0  0  0  0  0  0  0  0  0  0  0
   -1.1695   -0.7193    0.0000 H   0  0  0  0  0  0  0  0  0  0  0  0
    3.2835   -0.3272    0.0000 H   0  0  0  0  0  0  0  0  0  0  0  0
    0.9393   -0.4688    0.0000 H   0  0  0  0  0  0  0  0  0  0  0  0
   -3.1530    1.9854    0.0000 H   0  0  0  0  0  0  0  0  0  0  0  0
   -2.6481   -0.9718    0.0000 H   0  0  0  0  0  0  0  0  0  0  0  0
   -1.0806    2.4488    0.0000 H   0  0  0  0  0  0  0  0  0  0  0  0
    0.6526    2.7447    0.0000 H   0  0  0  0  0  0  0  0  0  0  0  0
   -0.4483    3.9689    0.0000 H   0  0  0  0  0  0  0  0  0  0  0  0
   -4.1267   -1.2243    0.0000 H   0  0  0  0  0  0  0  0  0  0  0  0
   -4.6316    1.7329    0.0000 H   0  0  0  0  0  0  0  0  0  0  0  0
    3.4511   -1.0443    0.0000 H   0  0  0  0  0  0  0  0  0  0  0  0
    2.5765    4.0777    0.0000 H   0  0  0  0  0  0  0  0  0  0  0  0
   -0.5208   -2.1303    0.0000 H   0  0  0  0  0  0  0  0  0  0  0  0
    4.6012   -1.2557    0.0000 H   0  0  0  0  0  0  0  0  0  0  0  0
    6.4083   -0.5394    0.0000 H   0  0  0  0  0  0  0  0  0  0  0  0
    5.5337    4.5826    0.0000 H   0  0  0  0  0  0  0  0  0  0  0  0
    7.4496    2.2741    0.0000 H   0  0  0  0  0  0  0  0  0  0  0  0
   -7.9700    0.1982    0.0000 H   0  0  0  0  0  0  0  0  0  0  0  0
   -5.6614    2.1141    0.0000 H   0  0  0  0  0  0  0  0  0  0  0  0
   -7.7737    2.3104    0.0000 H   0  0  0  0  0  0  0  0  0  0  0  0
   -7.7852   -0.8843    0.0000 H   0  0  0  0  0  0  0  0  0  0  0  0
   -4.9717   -1.9256    0.0000 H   0  0  0  0  0  0  0  0  0  0  0  0
   -6.8991   -2.8116    0.0000 H   0  0  0  0  0  0  0  0  0  0  0  0
   -0.0159   -5.0875    0.0000 H   0  0  0  0  0  0  0  0  0  0  0  0
    5.1061   -4.2129    0.0000 H   0  0  0  0  0  0  0  0  0  0  0  0
    2.7976   -6.1288    0.0000 H   0  0  0  0  0  0  0  0  0  0  0  0
  1  9  1  0
  1 18  1  0
  1 19  1  0
  2  3  1  0
  2  4  1  0
  2  8  1  0
  2 23  1  6
  3  5  1  0
  3  7  1  0
  3 24  1  1
  4  6  1  0
  4 25  1  0
  4 26  1  0
  5 10  1  0
  5 27  1  0
  5 28  1  0
  6  9  1  0
  6 29  1  0
  6 30  1  0
  7 11  2  0
  7 12  1  0
  8 31  1  0
  8 32  1  0
  8 33  1  0
  9 34  1  0
  9 35  1  0
 10 13  2  0
 10 14  1  0
 11 15  1  0
 11 36  1  0
 12 16  2  0
 12 37  1  0
 13 20  1  0
 13 38  1  0
 14 21  2  0
 14 39  1  0
 15 17  2  0
 15 40  1  0
 16 17  1  0
 16 41  1  0
 17 42  1  0
 18 46  1  0
 18 47  1  0
 18 48  1  0
 19 43  1  0
 19 44  1  0
 19 45  1  0
 20 22  2  0
 20 49  1  0
 21 22  1  0
 21 50  1  0
 22 51  1  0
M  STY  8   1 DAT   2 DAT   3 DAT   4 DAT   5 DAT   6 DAT   7 DAT   8 DAT
M  STY  8   9 DAT  10 DAT  11 DAT  12 DAT  13 DAT  14 DAT  15 DAT  16 DAT
M  STY  8  17 DAT  18 DAT  19 DAT  20 DAT  21 DAT  22 DAT  23 DAT  24 DAT
M  STY  8  25 DAT  26 DAT  27 DAT  28 DAT  29 DAT  30 DAT  31 DAT  32 DAT
M  STY  8  33 DAT  34 DAT  35 DAT  36 DAT  37 DAT  38 DAT  39 DAT  40 DAT
M  STY  8  41 DAT  42 DAT  43 DAT  44 DAT  45 DAT  46 DAT  47 DAT  48 DAT
M  STY  3  49 DAT  50 DAT  51 DAT
M  SAL   1  1   1
M  SED   1 [#7&h0]
M  SAL   2  1   2
M  SED   2 [#6&h0]
M  SAL   3  1   3
M  SED   3 [#6&h0]
M  SAL   4  1   4
M  SED   4 [#6&h0]
M  SAL   5  1   5
M  SED   5 [#6&h0]
M  SAL   6  1   6
M  SED   6 [#6&h0]
M  SAL   7  1   7
M  SED   7 [#6&h0]
M  SAL   8  1   8
M  SED   8 [#6&h0]
M  SAL   9  1   9
M  SED   9 [#6&h0]
M  SAL  10  1  10
M  SED  10 [#6&h0]
M  SAL  11  1  11
M  SED  11 [#6&h0]
M  SAL  12  1  12
M  SED  12 [#6&h0]
M  SAL  13  1  13
M  SED  13 [#6&h0]
M  SAL  14  1  14
M  SED  14 [#6&h0]
M  SAL  15  1  15
M  SED  15 [#6&h0]
M  SAL  16  1  16
M  SED  16 [#6&h0]
M  SAL  17  1  17
M  SED  17 [#6&h0]
M  SAL  18  1  18
M  SED  18 [#6&h0]
M  SAL  19  1  19
M  SED  19 [#6&h0]
M  SAL  20  1  20
M  SED  20 [#6&h0]
M  SAL  21  1  21
M  SED  21 [#6&h0]
M  SAL  22  1  22
M  SED  22 [#6&h0]
M  SAL  23  1  23
M  SED  23 [#1&h0]
M  SAL  24  1  24
M  SED  24 [#1&h0]
M  SAL  25  1  25
M  SED  25 [#1&h0]
M  SAL  26  1  26
M  SED  26 [#1&h0]
M  SAL  27  1  27
M  SED  27 [#1&h0]
M  SAL  28  1  28
M  SED  28 [#1&h0]
M  SAL  29  1  29
M  SED  29 [#1&h0]
M  SAL  30  1  30
M  SED  30 [#1&h0]
M  SAL  31  1  31
M  SED  31 [#1&h0]
M  SAL  32  1  32
M  SED  32 [#1&h0]
M  SAL  33  1  33
M  SED  33 [#1&h0]
M  SAL  34  1  34
M  SED  34 [#1&h0]
M  SAL  35  1  35
M  SED  35 [#1&h0]
M  SAL  36  1  36
M  SED  36 [#1&h0]
M  SAL  37  1  37
M  SED  37 [#1&h0]
M  SAL  38  1  38
M  SED  38 [#1&h0]
M  SAL  39  1  39
M  SED  39 [#1&h0]
M  SAL  40  1  40
M  SED  40 [#1&h0]
M  SAL  41  1  41
M  SED  41 [#1&h0]
M  SAL  42  1  42
M  SED  42 [#1&h0]
M  SAL  43  1  43
M  SED  43 [#1&h0]
M  SAL  44  1  44
M  SED  44 [#1&h0]
M  SAL  45  1  45
M  SED  45 [#1&h0]
M  SAL  46  1  46
M  SED  46 [#1&h0]
M  SAL  47  1  47
M  SED  47 [#1&h0]
M  SAL  48  1  48
M  SED  48 [#1&h0]
M  SAL  49  1  49
M  SED  49 [#1&h0]
M  SAL  50  1  50
M  SED  50 [#1&h0]
M  SAL  51  1  51
M  SED  51 [#1&h0]
M  END
>  <Activity>  (96) 
0.01

>  <Mapped(file=2032.csv.activities,property=Cached(PUBCHEM_COMPOUND_CID))>  (96) 
100

>  <MatchIndices>  (96) 
213 

>  <PUBCHEM_ATOM_DEF_STEREO_COUNT>  (96) 
0

>  <PUBCHEM_ATOM_UDEF_STEREO_COUNT>  (96) 
2

>  <PUBCHEM_BONDANNOTATIONS>  (96) 
11  14  8
11  15  8
12  16  8
13  17  8
14  21  8
15  22  8
16  18  8
17  18  8
21  23  8
22  23  8
3  9  3
4  6  3
8  12  8
8  13  8

>  <PUBCHEM_BOND_DEF_STEREO_COUNT>  (96) 
0

>  <PUBCHEM_BOND_UDEF_STEREO_COUNT>  (96) 
0

>  <PUBCHEM_CACTVS_COMPLEXITY>  (96) 
274

>  <PUBCHEM_CACTVS_HBOND_ACCEPTOR>  (96) 
1

>  <PUBCHEM_CACTVS_HBOND_DONOR>  (96) 
1

>  <PUBCHEM_CACTVS_ROTATABLE_BOND>  (96) 
8

>  <PUBCHEM_CACTVS_SUBSKEYS>  (96) 
AAADceB6AAAEAAAAAAAAAAAAAAAAAAAAAAAwYAAAAAAAAAABQAAAHAAAAAAADQDBGAQyAIMAAACAAiBCAAACAAAgAAAIiAAIAIgIICKAkRCEIAAggAAIiAcQgMAOgAAAAAAAAAAAAAAAAAAAAAAAAAAAAA==

>  <PUBCHEM_CACTVS_TAUTO_COUNT>  (96) 
1

>  <PUBCHEM_CACTVS_TPSA>  (96) 
3.2

>  <PUBCHEM_COMPONENT_COUNT>  (96) 
2

>  <PUBCHEM_COMPOUND_CANONICALIZED>  (96) 
1

>  <PUBCHEM_COMPOUND_CID>  (96) 
23723102

>  <PUBCHEM_COORDINATE_TYPE>  (96) 
1
5
255

>  <PUBCHEM_EXACT_MASS>  (96) 
331.206678

>  <PUBCHEM_HEAVY_ATOM_COUNT>  (96) 
23

>  <PUBCHEM_ISOTOPIC_ATOM_COUNT>  (96) 
0

>  <PUBCHEM_IUPAC_CAS_NAME>  (96) 
N,N,4-trimethyl-5,6-diphenyl-1-hexanamine hydrochloride

>  <PUBCHEM_IUPAC_INCHI>  (96) 
InChI=1S/C21H29N.ClH/c1-18(11-10-16-22(2)3)21(20-14-8-5-9-15-20)17-19-12-6-4-7-13-19;/h4-9,12-15,18,21H,10-11,16-17H2,1-3H3;1H

>  <PUBCHEM_IUPAC_INCHIKEY>  (96) 
XGEHRILRSDLQPN-UHFFFAOYSA-N

>  <PUBCHEM_IUPAC_NAME>  (96) 
N,N,4-trimethyl-5,6-diphenylhexan-1-amine hydrochloride

>  <PUBCHEM_IUPAC_OPENEYE_NAME>  (96) 
N,N,4-trimethyl-5,6-diphenyl-hexan-1-amine hydrochloride

>  <PUBCHEM_IUPAC_SYSTEMATIC_NAME>  (96) 
N,N,4-trimethyl-5,6-diphenyl-hexan-1-amine hydrochloride

>  <PUBCHEM_IUPAC_TRADITIONAL_NAME>  (96) 
dimethyl-(4-methyl-5,6-diphenyl-hexyl)amine hydrochloride

>  <PUBCHEM_MOLECULAR_FORMULA>  (96) 
C21H30ClN

>  <PUBCHEM_MOLECULAR_WEIGHT>  (96) 
331.9226

>  <PUBCHEM_MONOISOTOPIC_WEIGHT>  (96) 
331.206678

>  <PUBCHEM_OPENEYE_CAN_SMILES>  (96) 
CC(CCCN(C)C)C(CC1=CC=CC=C1)C2=CC=CC=C2.Cl

>  <PUBCHEM_OPENEYE_ISO_SMILES>  (96) 
CC(CCCN(C)C)C(CC1=CC=CC=C1)C2=CC=CC=C2.Cl

>  <PUBCHEM_TOTAL_CHARGE>  (96) 
0

$$$$
Largest isolated from Written by BCL::WriteToMDL,2045841
     RDKit          2D

 46 48  0 46  0  0  0  0  0  0999 V2000
    2.9493    1.4799    0.0000 S   0  0  0  0  0  0  0  0  0  0  0  0
   -3.7733    1.4281    0.0000 O   0  0  0  0  0  0  0  0  0  0  0  0
    0.2849    1.6945    0.0000 N   0  0  0  0  0  0  0  0  0  0  0  0
   -0.2860   -0.6644    0.0000 N   0  0  0  0  0  0  0  0  0  0  0  0
    1.2096   -0.5495    0.0000 N   0  0  0  0  0  0  0  0  0  0  0  0
   10.0795   -4.0120    0.0000 N   0  0  0  0  0  0  0  0  0  0  0  0
    0.1700    3.1901    0.0000 C   0  0  0  0  0  0  0  0  0  0  0  0
   -0.8575    0.7224    0.0000 C   0  0  0  0  0  0  0  0  0  0  0  0
    1.5625    0.9084    0.0000 C   0  0  0  0  0  0  0  0  0  0  0  0
   -2.3154    1.0753    0.0000 C   0  0  0  0  0  0  0  0  0  0  0  0
    0.0550    4.6857    0.0000 C   0  0  0  0  0  0  0  0  0  0  0  0
    4.1377    0.5646    0.0000 C   0  0  0  0  0  0  0  0  0  0  0  0
    5.3260   -0.3507    0.0000 C   0  0  0  0  0  0  0  0  0  0  0  0
   -4.8078    0.3419    0.0000 C   0  0  0  0  0  0  0  0  0  0  0  0
    5.1275   -1.8375    0.0000 C   0  0  0  0  0  0  0  0  0  0  0  0
    6.7129    0.2208    0.0000 C   0  0  0  0  0  0  0  0  0  0  0  0
   -4.3844   -1.0971    0.0000 C   0  0  0  0  0  0  0  0  0  0  0  0
   -6.2657    0.6948    0.0000 C   0  0  0  0  0  0  0  0  0  0  0  0
   -6.8768   -1.8304    0.0000 C   0  0  0  0  0  0  0  0  0  0  0  0
   -5.4189   -2.1832    0.0000 C   0  0  0  0  0  0  0  0  0  0  0  0
   -7.3002   -0.3914    0.0000 C   0  0  0  0  0  0  0  0  0  0  0  0
    6.3159   -2.7528    0.0000 C   0  0  0  0  0  0  0  0  0  0  0  0
    7.9013   -0.6945    0.0000 C   0  0  0  0  0  0  0  0  0  0  0  0
    7.7028   -2.1813    0.0000 C   0  0  0  0  0  0  0  0  0  0  0  0
   -7.9114   -2.9166    0.0000 C   0  0  0  0  0  0  0  0  0  0  0  0
    8.8911   -3.0966    0.0000 C   0  0  0  0  0  0  0  0  0  0  0  0
    1.6656    3.3051    0.0000 H   0  0  0  0  0  0  0  0  0  0  0  0
   -1.3285    3.2583    0.0000 H   0  0  0  0  0  0  0  0  0  0  0  0
   -2.6682   -0.3826    0.0000 H   0  0  0  0  0  0  0  0  0  0  0  0
   -2.1429    2.5653    0.0000 H   0  0  0  0  0  0  0  0  0  0  0  0
   -1.4406    4.5708    0.0000 H   0  0  0  0  0  0  0  0  0  0  0  0
    1.5506    4.8007    0.0000 H   0  0  0  0  0  0  0  0  0  0  0  0
   -0.0599    6.1813    0.0000 H   0  0  0  0  0  0  0  0  0  0  0  0
    3.2224   -0.6237    0.0000 H   0  0  0  0  0  0  0  0  0  0  0  0
    5.0530    1.7530    0.0000 H   0  0  0  0  0  0  0  0  0  0  0  0
    3.7407   -2.4090    0.0000 H   0  0  0  0  0  0  0  0  0  0  0  0
    6.9114    1.7076    0.0000 H   0  0  0  0  0  0  0  0  0  0  0  0
   -2.9265   -1.4499    0.0000 H   0  0  0  0  0  0  0  0  0  0  0  0
   -6.6891    2.1338    0.0000 H   0  0  0  0  0  0  0  0  0  0  0  0
   -4.9955   -3.6222    0.0000 H   0  0  0  0  0  0  0  0  0  0  0  0
   -8.7581   -0.0386    0.0000 H   0  0  0  0  0  0  0  0  0  0  0  0
    6.1174   -4.2396    0.0000 H   0  0  0  0  0  0  0  0  0  0  0  0
    9.2881   -0.1230    0.0000 H   0  0  0  0  0  0  0  0  0  0  0  0
   -6.8252   -3.9511    0.0000 H   0  0  0  0  0  0  0  0  0  0  0  0
   -8.9975   -1.8821    0.0000 H   0  0  0  0  0  0  0  0  0  0  0  0
   -8.9459   -4.0027    0.0000 H   0  0  0  0  0  0  0  0  0  0  0  0
  1  9  1  0
  1 12  1  0
  2 10  1  0
  2 14  1  0
  3  7  1  0
  3  8  1  0
  3  9  1  0
  4  5  1  0
  4  8  2  0
  5  9  2  0
  6 26  3  0
  7 11  1  0
  7 27  1  0
  7 28  1  0
  8 10  1  0
 10 29  1  0
 10 30  1  0
 11 31  1  0
 11 32  1  0
 11 33  1  0
 12 13  1  0
 12 34  1  0
 12 35  1  0
 13 15  2  0
 13 16  1  0
 14 17  2  0
 14 18  1  0
 15 22  1  0
 15 36  1  0
 16 23  2  0
 16 37  1  0
 17 20  1  0
 17 38  1  0
 18 21  2  0
 18 39  1  0
 19 20  2  0
 19 21  1  0
 19 25  1  0
 20 40  1  0
 21 41  1  0
 22 24  2  0
 22 42  1  0
 23 24  1  0
 23 43  1  0
 24 26  1  0
 25 44  1  0
 25 45  1  0
 25 46  1  0
M  STY  8   1 DAT   2 DAT   3 DAT   4 DAT   5 DAT   6 DAT   7 DAT   8 DAT
M  STY  8   9 DAT  10 DAT  11 DAT  12 DAT  13 DAT  14 DAT  15 DAT  16 DAT
M  STY  8  17 DAT  18 DAT  19 DAT  20 DAT  21 DAT  22 DAT  23 DAT  24 DAT
M  STY  8  25 DAT  26 DAT  27 DAT  28 DAT  29 DAT  30 DAT  31 DAT  32 DAT
M  STY  8  33 DAT  34 DAT  35 DAT  36 DAT  37 DAT  38 DAT  39 DAT  40 DAT
M  STY  6  41 DAT  42 DAT  43 DAT  44 DAT  45 DAT  46 DAT
M  SAL   1  1   1
M  SED   1 [#16&h0]
M  SAL   2  1   2
M  SED   2 [#8&h0]
M  SAL   3  1   3
M  SED   3 [#7&h0]
M  SAL   4  1   4
M  SED   4 [#7&h0]
M  SAL   5  1   5
M  SED   5 [#7&h0]
M  SAL   6  1   6
M  SED   6 [#7&h0]
M  SAL   7  1   7
M  SED   7 [#6&h0]
M  SAL   8  1   8
M  SED   8 [#6&h0]
M  SAL   9  1   9
M  SED   9 [#6&h0]
M  SAL  10  1  10
M  SED  10 [#6&h0]
M  SAL  11  1  11
M  SED  11 [#6&h0]
M  SAL  12  1  12
M  SED  12 [#6&h0]
M  SAL  13  1  13
M  SED  13 [#6&h0]
M  SAL  14  1  14
M  SED  14 [#6&h0]
M  SAL  15  1  15
M  SED  15 [#6&h0]
M  SAL  16  1  16
M  SED  16 [#6&h0]
M  SAL  17  1  17
M  SED  17 [#6&h0]
M  SAL  18  1  18
M  SED  18 [#6&h0]
M  SAL  19  1  19
M  SED  19 [#6&h0]
M  SAL  20  1  20
M  SED  20 [#6&h0]
M  SAL  21  1  21
M  SED  21 [#6&h0]
M  SAL  22  1  22
M  SED  22 [#6&h0]
M  SAL  23  1  23
M  SED  23 [#6&h0]
M  SAL  24  1  24
M  SED  24 [#6&h0]
M  SAL  25  1  25
M  SED  25 [#6&h0]
M  SAL  26  1  26
M  SED  26 [#6&h0]
M  SAL  27  1  27
M  SED  27 [#1&h0]
M  SAL  28  1  28
M  SED  28 [#1&h0]
M  SAL  29  1  29
M  SED  29 [#1&h0]
M  SAL  30  1  30
M  SED  30 [#1&h0]
M  SAL  31  1  31
M  SED  31 [#1&h0]
M  SAL  32  1  32
M  SED  32 [#1&h0]
M  SAL  33  1  33
M  SED  33 [#1&h0]
M  SAL  34  1  34
M  SED  34 [#1&h0]
M  SAL  35  1  35
M  SED  35 [#1&h0]
M  SAL  36  1  36
M  SED  36 [#1&h0]
M  SAL  37  1  37
M  SED  37 [#1&h0]
M  SAL  38  1  38
M  SED  38 [#1&h0]
M  SAL  39  1  39
M  SED  39 [#1&h0]
M  SAL  40  1  40
M  SED  40 [#1&h0]
M  SAL  41  1  41
M  SED  41 [#1&h0]
M  SAL  42  1  42
M  SED  42 [#1&h0]
M  SAL  43  1  43
M  SED  43 [#1&h0]
M  SAL  44  1  44
M  SED  44 [#1&h0]
M  SAL  45  1  45
M  SED  45 [#1&h0]
M  SAL  46  1  46
M  SED  46 [#1&h0]
M  END
>  <Activity>  (97) 
0.01

>  <Mapped(file=2032.csv.activities,property=Cached(PUBCHEM_COMPOUND_CID))>  (97) 
100

>  <MatchIndices>  (97) 
201 

>  <PUBCHEM_ATOM_DEF_STEREO_COUNT>  (97) 
0

>  <PUBCHEM_ATOM_UDEF_STEREO_COUNT>  (97) 
0

>  <PUBCHEM_BONDANNOTATIONS>  (97) 
13  15  8
13  16  8
14  17  8
14  18  8
15  22  8
16  23  8
17  20  8
18  21  8
19  20  8
19  21  8
22  24  8
23  24  8
3  8  8
3  9  8
4  5  8
4  8  8
5  9  8

>  <PUBCHEM_BOND_DEF_STEREO_COUNT>  (97) 
0

>  <PUBCHEM_BOND_UDEF_STEREO_COUNT>  (97) 
0

>  <PUBCHEM_CACTVS_COMPLEXITY>  (97) 
466

>  <PUBCHEM_CACTVS_HBOND_ACCEPTOR>  (97) 
3

>  <PUBCHEM_CACTVS_HBOND_DONOR>  (97) 
0

>  <PUBCHEM_CACTVS_ROTATABLE_BOND>  (97) 
7

>  <PUBCHEM_CACTVS_SUBSKEYS>  (97) 
AAADceB7oABAAAAAAAAAAAAAAAAAAWAAAAAwYAAAAAAAAAAB0AAAHgQIAAAADATl2wazFocMFAiyBiJiJAQy2AtgILAdyAAeCIiOriKkORqDOCCkyBOYqA+AwAAOYAAAAAAAAADAAAAAAAAAAAAAAAAAAA==

>  <PUBCHEM_CACTVS_TAUTO_COUNT>  (97) 
1

>  <PUBCHEM_CACTVS_TPSA>  (97) 
89

>  <PUBCHEM_COMPONENT_COUNT>  (97) 
1

>  <PUBCHEM_COMPOUND_CANONICALIZED>  (97) 
1

>  <PUBCHEM_COMPOUND_CID>  (97) 
2045841

>  <PUBCHEM_COORDINATE_TYPE>  (97) 
1
5
255

>  <PUBCHEM_EXACT_MASS>  (97) 
364.135782

>  <PUBCHEM_HEAVY_ATOM_COUNT>  (97) 
26

>  <PUBCHEM_ISOTOPIC_ATOM_COUNT>  (97) 
0

>  <PUBCHEM_IUPAC_CAS_NAME>  (97) 
4-[[[4-ethyl-5-[(4-methylphenoxy)methyl]-1,2,4-triazol-3-yl]thio]methyl]benzonitrile

>  <PUBCHEM_IUPAC_INCHI>  (97) 
InChI=1S/C20H20N4OS/c1-3-24-19(13-25-18-10-4-15(2)5-11-18)22-23-20(24)26-14-17-8-6-16(12-21)7-9-17/h4-11H,3,13-14H2,1-2H3

>  <PUBCHEM_IUPAC_INCHIKEY>  (97) 
SZAKWCMAJDDKGG-UHFFFAOYSA-N

>  <PUBCHEM_IUPAC_NAME>  (97) 
4-[[4-ethyl-5-[(4-methylphenoxy)methyl]-1,2,4-triazol-3-yl]sulfanylmethyl]benzonitrile

>  <PUBCHEM_IUPAC_OPENEYE_NAME>  (97) 
4-[[4-ethyl-5-[(4-methylphenoxy)methyl]-1,2,4-triazol-3-yl]sulfanylmethyl]benzonitrile

>  <PUBCHEM_IUPAC_SYSTEMATIC_NAME>  (97) 
4-[[4-ethyl-5-[(4-methylphenoxy)methyl]-1,2,4-triazol-3-yl]sulfanylmethyl]benzenecarbonitrile

>  <PUBCHEM_IUPAC_TRADITIONAL_NAME>  (97) 
4-[[[4-ethyl-5-[(4-methylphenoxy)methyl]-1,2,4-triazol-3-yl]thio]methyl]benzonitrile

>  <PUBCHEM_MOLECULAR_FORMULA>  (97) 
C20H20N4OS

>  <PUBCHEM_MOLECULAR_WEIGHT>  (97) 
364.464

>  <PUBCHEM_MONOISOTOPIC_WEIGHT>  (97) 
364.135782

>  <PUBCHEM_OPENEYE_CAN_SMILES>  (97) 
CCN1C(=NN=C1SCC2=CC=C(C=C2)C#N)COC3=CC=C(C=C3)C

>  <PUBCHEM_OPENEYE_ISO_SMILES>  (97) 
CCN1C(=NN=C1SCC2=CC=C(C=C2)C#N)COC3=CC=C(C=C3)C

>  <PUBCHEM_TOTAL_CHARGE>  (97) 
0

>  <PUBCHEM_XLOGP3_AA>  (97) 
3.6

$$$$
Largest isolated from Written by BCL::WriteToMDL,24746835
     RDKit          2D

 40 42  0 40  0  0  0  0  0  0999 V2000
   -1.0705   -2.7896    0.0000 N   0  0  0  0  0  0  0  0  0  0  0  0
    5.5737   -1.1251    0.0000 N   0  0  0  0  0  0  0  0  0  0  0  0
    1.7423   -1.7463    0.0000 C   0  0  0  0  0  0  0  0  0  0  0  0
    3.1487   -1.2247    0.0000 C   0  0  0  0  0  0  0  0  0  0  0  0
    3.5533    0.2197    0.0000 C   0  0  0  0  0  0  0  0  0  0  0  0
    0.3359   -2.2679    0.0000 C   0  0  0  0  0  0  0  0  0  0  0  0
    5.0520    0.2812    0.0000 C   0  0  0  0  0  0  0  0  0  0  0  0
    4.3973   -2.0558    0.0000 C   0  0  0  0  0  0  0  0  0  0  0  0
   -2.2254   -1.8324    0.0000 C   0  0  0  0  0  0  0  0  0  0  0  0
    2.7507    1.4869    0.0000 C   0  0  0  0  0  0  0  0  0  0  0  0
   -3.3803   -0.8753    0.0000 C   0  0  0  0  0  0  0  0  0  0  0  0
    5.7481    1.6099    0.0000 C   0  0  0  0  0  0  0  0  0  0  0  0
    3.4468    2.8156    0.0000 C   0  0  0  0  0  0  0  0  0  0  0  0
    4.9455    2.8771    0.0000 C   0  0  0  0  0  0  0  0  0  0  0  0
   -3.1289    0.6035    0.0000 C   0  0  0  0  0  0  0  0  0  0  0  0
   -4.7867   -1.3969    0.0000 C   0  0  0  0  0  0  0  0  0  0  0  0
   -4.2838    1.5606    0.0000 C   0  0  0  0  0  0  0  0  0  0  0  0
   -5.9417   -0.4398    0.0000 C   0  0  0  0  0  0  0  0  0  0  0  0
   -5.6902    1.0390    0.0000 C   0  0  0  0  0  0  0  0  0  0  0  0
   -4.0324    3.0394    0.0000 C   0  0  0  0  0  0  0  0  0  0  0  0
    1.2207   -0.3399    0.0000 H   0  0  0  0  0  0  0  0  0  0  0  0
    2.2639   -3.1527    0.0000 H   0  0  0  0  0  0  0  0  0  0  0  0
    0.8575   -3.6743    0.0000 H   0  0  0  0  0  0  0  0  0  0  0  0
   -0.1857   -0.8616    0.0000 H   0  0  0  0  0  0  0  0  0  0  0  0
    4.4588   -3.5546    0.0000 H   0  0  0  0  0  0  0  0  0  0  0  0
   -1.3219   -4.2683    0.0000 H   0  0  0  0  0  0  0  0  0  0  0  0
    7.0181   -1.5298    0.0000 H   0  0  0  0  0  0  0  0  0  0  0  0
   -3.1825   -2.9874    0.0000 H   0  0  0  0  0  0  0  0  0  0  0  0
   -1.2683   -0.6775    0.0000 H   0  0  0  0  0  0  0  0  0  0  0  0
    1.2519    1.4254    0.0000 H   0  0  0  0  0  0  0  0  0  0  0  0
    7.2469    1.6714    0.0000 H   0  0  0  0  0  0  0  0  0  0  0  0
    2.6441    4.0828    0.0000 H   0  0  0  0  0  0  0  0  0  0  0  0
    5.6416    4.2058    0.0000 H   0  0  0  0  0  0  0  0  0  0  0  0
   -1.7225    1.1251    0.0000 H   0  0  0  0  0  0  0  0  0  0  0  0
   -5.0382   -2.8757    0.0000 H   0  0  0  0  0  0  0  0  0  0  0  0
   -7.3480   -0.9614    0.0000 H   0  0  0  0  0  0  0  0  0  0  0  0
   -6.8451    1.9962    0.0000 H   0  0  0  0  0  0  0  0  0  0  0  0
   -5.5112    3.2909    0.0000 H   0  0  0  0  0  0  0  0  0  0  0  0
   -2.5536    2.7880    0.0000 H   0  0  0  0  0  0  0  0  0  0  0  0
   -3.7809    4.5182    0.0000 H   0  0  0  0  0  0  0  0  0  0  0  0
  1  6  1  0
  1  9  1  0
  1 26  1  0
  2  7  1  0
  2  8  1  0
  2 27  1  0
  3  4  1  0
  3  6  1  0
  3 21  1  0
  3 22  1  0
  4  5  1  0
  4  8  2  0
  5  7  2  0
  5 10  1  0
  6 23  1  0
  6 24  1  0
  7 12  1  0
  8 25  1  0
  9 11  1  0
  9 28  1  0
  9 29  1  0
 10 13  2  0
 10 30  1  0
 11 15  2  0
 11 16  1  0
 12 14  2  0
 12 31  1  0
 13 14  1  0
 13 32  1  0
 14 33  1  0
 15 17  1  0
 15 34  1  0
 16 18  2  0
 16 35  1  0
 17 19  2  0
 17 20  1  0
 18 19  1  0
 18 36  1  0
 19 37  1  0
 20 38  1  0
 20 39  1  0
 20 40  1  0
M  STY  8   1 DAT   2 DAT   3 DAT   4 DAT   5 DAT   6 DAT   7 DAT   8 DAT
M  STY  8   9 DAT  10 DAT  11 DAT  12 DAT  13 DAT  14 DAT  15 DAT  16 DAT
M  STY  8  17 DAT  18 DAT  19 DAT  20 DAT  21 DAT  22 DAT  23 DAT  24 DAT
M  STY  8  25 DAT  26 DAT  27 DAT  28 DAT  29 DAT  30 DAT  31 DAT  32 DAT
M  STY  8  33 DAT  34 DAT  35 DAT  36 DAT  37 DAT  38 DAT  39 DAT  40 DAT
M  SAL   1  1   1
M  SED   1 [#7&h0]
M  SAL   2  1   2
M  SED   2 [#7&h0]
M  SAL   3  1   3
M  SED   3 [#6&h0]
M  SAL   4  1   4
M  SED   4 [#6&h0]
M  SAL   5  1   5
M  SED   5 [#6&h0]
M  SAL   6  1   6
M  SED   6 [#6&h0]
M  SAL   7  1   7
M  SED   7 [#6&h0]
M  SAL   8  1   8
M  SED   8 [#6&h0]
M  SAL   9  1   9
M  SED   9 [#6&h0]
M  SAL  10  1  10
M  SED  10 [#6&h0]
M  SAL  11  1  11
M  SED  11 [#6&h0]
M  SAL  12  1  12
M  SED  12 [#6&h0]
M  SAL  13  1  13
M  SED  13 [#6&h0]
M  SAL  14  1  14
M  SED  14 [#6&h0]
M  SAL  15  1  15
M  SED  15 [#6&h0]
M  SAL  16  1  16
M  SED  16 [#6&h0]
M  SAL  17  1  17
M  SED  17 [#6&h0]
M  SAL  18  1  18
M  SED  18 [#6&h0]
M  SAL  19  1  19
M  SED  19 [#6&h0]
M  SAL  20  1  20
M  SED  20 [#6&h0]
M  SAL  21  1  21
M  SED  21 [#1&h0]
M  SAL  22  1  22
M  SED  22 [#1&h0]
M  SAL  23  1  23
M  SED  23 [#1&h0]
M  SAL  24  1  24
M  SED  24 [#1&h0]
M  SAL  25  1  25
M  SED  25 [#1&h0]
M  SAL  26  1  26
M  SED  26 [#1&h0]
M  SAL  27  1  27
M  SED  27 [#1&h0]
M  SAL  28  1  28
M  SED  28 [#1&h0]
M  SAL  29  1  29
M  SED  29 [#1&h0]
M  SAL  30  1  30
M  SED  30 [#1&h0]
M  SAL  31  1  31
M  SED  31 [#1&h0]
M  SAL  32  1  32
M  SED  32 [#1&h0]
M  SAL  33  1  33
M  SED  33 [#1&h0]
M  SAL  34  1  34
M  SED  34 [#1&h0]
M  SAL  35  1  35
M  SED  35 [#1&h0]
M  SAL  36  1  36
M  SED  36 [#1&h0]
M  SAL  37  1  37
M  SED  37 [#1&h0]
M  SAL  38  1  38
M  SED  38 [#1&h0]
M  SAL  39  1  39
M  SED  39 [#1&h0]
M  SAL  40  1  40
M  SED  40 [#1&h0]
M  END
>  <Activity>  (98) 
0.01

>  <Mapped(file=2032.csv.activities,property=Cached(PUBCHEM_COMPOUND_CID))>  (98) 
100

>  <MatchIndices>  (98) 
15 

>  <PUBCHEM_ATOM_DEF_STEREO_COUNT>  (98) 
0

>  <PUBCHEM_ATOM_UDEF_STEREO_COUNT>  (98) 
0

>  <PUBCHEM_BONDANNOTATIONS>  (98) 
11  16  8
14  17  8
15  19  8
15  20  8
16  18  8
17  18  8
19  21  8
20  22  8
21  23  8
22  23  8
6  11  8
6  12  8
8  12  8
8  9  8
9  11  8
9  14  8

>  <PUBCHEM_BOND_DEF_STEREO_COUNT>  (98) 
0

>  <PUBCHEM_BOND_UDEF_STEREO_COUNT>  (98) 
0

>  <PUBCHEM_CACTVS_COMPLEXITY>  (98) 
363

>  <PUBCHEM_CACTVS_HBOND_ACCEPTOR>  (98) 
5

>  <PUBCHEM_CACTVS_HBOND_DONOR>  (98) 
4

>  <PUBCHEM_CACTVS_ROTATABLE_BOND>  (98) 
6

>  <PUBCHEM_CACTVS_SUBSKEYS>  (98) 
AAADceB7OAAAAAAAAAAAAAAAAAAAAWAAAAAwYAAAAAAAAFgB9AAAHgAQCAAADAjBngQ+yPLJkgCoAzT3TAKCgCAxAiAI2aB4ZJgJIOLAkZGEIAhgkADJyAcQgMAOgAACAAACAAAAAAQAAAQAAAAAAAAAAA==

>  <PUBCHEM_CACTVS_TAUTO_COUNT>  (98) 
1

>  <PUBCHEM_CACTVS_TPSA>  (98) 
102

>  <PUBCHEM_COMPONENT_COUNT>  (98) 
2

>  <PUBCHEM_COMPOUND_CANONICALIZED>  (98) 
1

>  <PUBCHEM_COMPOUND_CID>  (98) 
24746835

>  <PUBCHEM_COORDINATE_TYPE>  (98) 
1
5
255

>  <PUBCHEM_EXACT_MASS>  (98) 
354.157957

>  <PUBCHEM_HEAVY_ATOM_COUNT>  (98) 
26

>  <PUBCHEM_ISOTOPIC_ATOM_COUNT>  (98) 
0

>  <PUBCHEM_IUPAC_CAS_NAME>  (98) 
2-(1H-indol-3-yl)-N-[(3-methylphenyl)methyl]ethanamine; oxalic acid

>  <PUBCHEM_IUPAC_INCHI>  (98) 
InChI=1S/C18H20N2.C2H2O4/c1-14-5-4-6-15(11-14)12-19-10-9-16-13-20-18-8-3-2-7-17(16)18;3-1(4)2(5)6/h2-8,11,13,19-20H,9-10,12H2,1H3;(H,3,4)(H,5,6)

>  <PUBCHEM_IUPAC_INCHIKEY>  (98) 
FDMJALUNIGDJSZ-UHFFFAOYSA-N

>  <PUBCHEM_IUPAC_NAME>  (98) 
2-(1H-indol-3-yl)-N-[(3-methylphenyl)methyl]ethanamine; oxalic acid

>  <PUBCHEM_IUPAC_OPENEYE_NAME>  (98) 
2-(1H-indol-3-yl)-N-(m-tolylmethyl)ethanamine; oxalic acid

>  <PUBCHEM_IUPAC_SYSTEMATIC_NAME>  (98) 
ethanedioic acid; 2-(1H-indol-3-yl)-N-[(3-methylphenyl)methyl]ethanamine

>  <PUBCHEM_IUPAC_TRADITIONAL_NAME>  (98) 
2-(1H-indol-3-yl)ethyl-(3-methylbenzyl)amine; oxalic acid

>  <PUBCHEM_MOLECULAR_FORMULA>  (98) 
C20H22N2O4

>  <PUBCHEM_MOLECULAR_WEIGHT>  (98) 
354.39968

>  <PUBCHEM_MONOISOTOPIC_WEIGHT>  (98) 
354.157957

>  <PUBCHEM_OPENEYE_CAN_SMILES>  (98) 
CC1=CC(=CC=C1)CNCCC2=CNC3=CC=CC=C32.C(=O)(C(=O)O)O

>  <PUBCHEM_OPENEYE_ISO_SMILES>  (98) 
CC1=CC(=CC=C1)CNCCC2=CNC3=CC=CC=C32.C(=O)(C(=O)O)O

>  <PUBCHEM_TOTAL_CHARGE>  (98) 
0

$$$$
Largest isolated from Written by BCL::WriteToMDL,24240380
     RDKit          2D

 48 49  0 48  0  0  0  0  0  0999 V2000
   -9.7048   -2.6236    0.0000 Cl  0  0  0  0  0  0  0  0  0  0  0  0
   -4.4275    0.2312    0.0000 S   0  0  0  0  0  0  0  0  0  0  0  0
   -3.7138   -1.0881    0.0000 O   0  0  0  0  0  0  0  0  0  0  0  0
   -5.1412    1.5506    0.0000 O   0  0  0  0  0  0  0  0  0  0  0  0
   -0.4695    2.3723    0.0000 N   0  0  0  0  0  0  0  0  0  0  0  0
    0.8082    1.5866    0.0000 C   0  0  0  0  0  0  0  0  0  0  0  0
   -1.7888    1.6586    0.0000 C   0  0  0  0  0  0  0  0  0  0  0  0
    2.0860    0.8009    0.0000 C   0  0  0  0  0  0  0  0  0  0  0  0
   -3.1082    0.9449    0.0000 C   0  0  0  0  0  0  0  0  0  0  0  0
    5.9192   -1.5562    0.0000 C   0  0  0  0  0  0  0  0  0  0  0  0
    4.6415   -0.7705    0.0000 C   0  0  0  0  0  0  0  0  0  0  0  0
    1.5939    2.8644    0.0000 C   0  0  0  0  0  0  0  0  0  0  0  0
    2.0444   -0.6985    0.0000 C   0  0  0  0  0  0  0  0  0  0  0  0
    3.4053    1.5146    0.0000 C   0  0  0  0  0  0  0  0  0  0  0  0
    3.3222   -1.4842    0.0000 C   0  0  0  0  0  0  0  0  0  0  0  0
    4.6831    0.7289    0.0000 C   0  0  0  0  0  0  0  0  0  0  0  0
   -5.7468   -0.4825    0.0000 C   0  0  0  0  0  0  0  0  0  0  0  0
    6.7050   -0.2785    0.0000 C   0  0  0  0  0  0  0  0  0  0  0  0
    7.1970   -2.3420    0.0000 C   0  0  0  0  0  0  0  0  0  0  0  0
   -5.7884   -1.9819    0.0000 C   0  0  0  0  0  0  0  0  0  0  0  0
   -7.0246    0.3032    0.0000 C   0  0  0  0  0  0  0  0  0  0  0  0
   -7.1077   -2.6956    0.0000 C   0  0  0  0  0  0  0  0  0  0  0  0
   -8.3439   -0.4105    0.0000 C   0  0  0  0  0  0  0  0  0  0  0  0
   -8.3855   -1.9099    0.0000 C   0  0  0  0  0  0  0  0  0  0  0  0
    0.0225    0.3089    0.0000 H   0  0  0  0  0  0  0  0  0  0  0  0
   -2.5026    2.9780    0.0000 H   0  0  0  0  0  0  0  0  0  0  0  0
   -1.0751    0.3393    0.0000 H   0  0  0  0  0  0  0  0  0  0  0  0
   -2.3945   -0.3744    0.0000 H   0  0  0  0  0  0  0  0  0  0  0  0
   -3.8219    2.2643    0.0000 H   0  0  0  0  0  0  0  0  0  0  0  0
   -0.6110    3.8657    0.0000 H   0  0  0  0  0  0  0  0  0  0  0  0
    5.1335   -2.8340    0.0000 H   0  0  0  0  0  0  0  0  0  0  0  0
    0.4215    3.8000    0.0000 H   0  0  0  0  0  0  0  0  0  0  0  0
    2.4383    2.5968    0.0000 H   0  0  0  0  0  0  0  0  0  0  0  0
    2.3797    4.1421    0.0000 H   0  0  0  0  0  0  0  0  0  0  0  0
    0.7251   -1.4122    0.0000 H   0  0  0  0  0  0  0  0  0  0  0  0
    3.4299    2.4000    0.0000 H   0  0  0  0  0  0  0  0  0  0  0  0
    3.2806   -2.9837    0.0000 H   0  0  0  0  0  0  0  0  0  0  0  0
    5.4621    1.1503    0.0000 H   0  0  0  0  0  0  0  0  0  0  0  0
    7.7495   -1.6496    0.0000 H   0  0  0  0  0  0  0  0  0  0  0  0
    7.5104   -0.6470    0.0000 H   0  0  0  0  0  0  0  0  0  0  0  0
    6.0851    0.3542    0.0000 H   0  0  0  0  0  0  0  0  0  0  0  0
    7.4907    0.9993    0.0000 H   0  0  0  0  0  0  0  0  0  0  0  0
    6.4113   -3.6197    0.0000 H   0  0  0  0  0  0  0  0  0  0  0  0
    8.4747   -3.1277    0.0000 H   0  0  0  0  0  0  0  0  0  0  0  0
   -4.5107   -2.7676    0.0000 H   0  0  0  0  0  0  0  0  0  0  0  0
   -6.9830    1.8027    0.0000 H   0  0  0  0  0  0  0  0  0  0  0  0
   -7.1493   -4.1950    0.0000 H   0  0  0  0  0  0  0  0  0  0  0  0
   -9.6217    0.3753    0.0000 H   0  0  0  0  0  0  0  0  0  0  0  0
  1 24  1  0
  2  3  2  0
  2  4  2  0
  2  9  1  0
  2 17  1  0
  5  6  1  0
  5  7  1  0
  5 30  1  0
  6  8  1  0
  6 12  1  0
  6 25  1  1
  7  9  1  0
  7 26  1  0
  7 27  1  0
  8 13  2  0
  8 14  1  0
  9 28  1  0
  9 29  1  0
 10 11  1  0
 10 18  1  0
 10 19  1  0
 10 31  1  0
 11 15  2  0
 11 16  1  0
 12 32  1  0
 12 33  1  0
 12 34  1  0
 13 15  1  0
 13 35  1  0
 14 16  2  0
 14 36  1  0
 15 37  1  0
 16 38  1  0
 17 20  2  0
 17 21  1  0
 18 40  1  0
 18 41  1  0
 18 42  1  0
 19 39  1  0
 19 43  1  0
 19 44  1  0
 20 22  1  0
 20 45  1  0
 21 23  2  0
 21 46  1  0
 22 24  2  0
 22 47  1  0
 23 24  1  0
 23 48  1  0
M  STY  8   1 DAT   2 DAT   3 DAT   4 DAT   5 DAT   6 DAT   7 DAT   8 DAT
M  STY  8   9 DAT  10 DAT  11 DAT  12 DAT  13 DAT  14 DAT  15 DAT  16 DAT
M  STY  8  17 DAT  18 DAT  19 DAT  20 DAT  21 DAT  22 DAT  23 DAT  24 DAT
M  STY  8  25 DAT  26 DAT  27 DAT  28 DAT  29 DAT  30 DAT  31 DAT  32 DAT
M  STY  8  33 DAT  34 DAT  35 DAT  36 DAT  37 DAT  38 DAT  39 DAT  40 DAT
M  STY  8  41 DAT  42 DAT  43 DAT  44 DAT  45 DAT  46 DAT  47 DAT  48 DAT
M  SAL   1  1   1
M  SED   1 [#17&h0]
M  SAL   2  1   2
M  SED   2 [#16&h0]
M  SAL   3  1   3
M  SED   3 [#8&h0]
M  SAL   4  1   4
M  SED   4 [#8&h0]
M  SAL   5  1   5
M  SED   5 [#7&h0]
M  SAL   6  1   6
M  SED   6 [#6&h0]
M  SAL   7  1   7
M  SED   7 [#6&h0]
M  SAL   8  1   8
M  SED   8 [#6&h0]
M  SAL   9  1   9
M  SED   9 [#6&h0]
M  SAL  10  1  10
M  SED  10 [#6&h0]
M  SAL  11  1  11
M  SED  11 [#6&h0]
M  SAL  12  1  12
M  SED  12 [#6&h0]
M  SAL  13  1  13
M  SED  13 [#6&h0]
M  SAL  14  1  14
M  SED  14 [#6&h0]
M  SAL  15  1  15
M  SED  15 [#6&h0]
M  SAL  16  1  16
M  SED  16 [#6&h0]
M  SAL  17  1  17
M  SED  17 [#6&h0]
M  SAL  18  1  18
M  SED  18 [#6&h0]
M  SAL  19  1  19
M  SED  19 [#6&h0]
M  SAL  20  1  20
M  SED  20 [#6&h0]
M  SAL  21  1  21
M  SED  21 [#6&h0]
M  SAL  22  1  22
M  SED  22 [#6&h0]
M  SAL  23  1  23
M  SED  23 [#6&h0]
M  SAL  24  1  24
M  SED  24 [#6&h0]
M  SAL  25  1  25
M  SED  25 [#1&h0]
M  SAL  26  1  26
M  SED  26 [#1&h0]
M  SAL  27  1  27
M  SED  27 [#1&h0]
M  SAL  28  1  28
M  SED  28 [#1&h0]
M  SAL  29  1  29
M  SED  29 [#1&h0]
M  SAL  30  1  30
M  SED  30 [#1&h0]
M  SAL  31  1  31
M  SED  31 [#1&h0]
M  SAL  32  1  32
M  SED  32 [#1&h0]
M  SAL  33  1  33
M  SED  33 [#1&h0]
M  SAL  34  1  34
M  SED  34 [#1&h0]
M  SAL  35  1  35
M  SED  35 [#1&h0]
M  SAL  36  1  36
M  SED  36 [#1&h0]
M  SAL  37  1  37
M  SED  37 [#1&h0]
M  SAL  38  1  38
M  SED  38 [#1&h0]
M  SAL  39  1  39
M  SED  39 [#1&h0]
M  SAL  40  1  40
M  SED  40 [#1&h0]
M  SAL  41  1  41
M  SED  41 [#1&h0]
M  SAL  42  1  42
M  SED  42 [#1&h0]
M  SAL  43  1  43
M  SED  43 [#1&h0]
M  SAL  44  1  44
M  SED  44 [#1&h0]
M  SAL  45  1  45
M  SED  45 [#1&h0]
M  SAL  46  1  46
M  SED  46 [#1&h0]
M  SAL  47  1  47
M  SED  47 [#1&h0]
M  SAL  48  1  48
M  SED  48 [#1&h0]
M  END
>  <Activity>  (99) 
0.01

>  <Mapped(file=2032.csv.activities,property=Cached(PUBCHEM_COMPOUND_CID))>  (99) 
100

>  <MatchIndices>  (99) 
207 

>  <PUBCHEM_ATOM_DEF_STEREO_COUNT>  (99) 
0

>  <PUBCHEM_ATOM_UDEF_STEREO_COUNT>  (99) 
1

>  <PUBCHEM_BONDANNOTATIONS>  (99) 
11  15  8
11  16  8
13  15  8
14  16  8
17  20  8
17  21  8
20  22  8
21  23  8
22  24  8
23  24  8
6  12  3
8  13  8
8  14  8

>  <PUBCHEM_BOND_DEF_STEREO_COUNT>  (99) 
0

>  <PUBCHEM_BOND_UDEF_STEREO_COUNT>  (99) 
0

>  <PUBCHEM_CACTVS_COMPLEXITY>  (99) 
458

>  <PUBCHEM_CACTVS_HBOND_ACCEPTOR>  (99) 
3

>  <PUBCHEM_CACTVS_HBOND_DONOR>  (99) 
1

>  <PUBCHEM_CACTVS_ROTATABLE_BOND>  (99) 
7

>  <PUBCHEM_CACTVS_SUBSKEYS>  (99) 
AAADceB6MABEAAAAAAAAAAAAAAAAAAAAAAAwYAAAAAAAAAABQAAAHAYQAAAADSrFWCSyAYLAAAqAAiBCAHDCAAAgDRAIiJgIBogIICKhkxGEIAhgkACoiAcQgMAOwAIAAAAAAACABAAAAAAAAAAAAAAAAA==

>  <PUBCHEM_CACTVS_TAUTO_COUNT>  (99) 
1

>  <PUBCHEM_CACTVS_TPSA>  (99) 
54.6

>  <PUBCHEM_COMPONENT_COUNT>  (99) 
1

>  <PUBCHEM_COMPOUND_CANONICALIZED>  (99) 
1

>  <PUBCHEM_COMPOUND_CID>  (99) 
24240380

>  <PUBCHEM_COORDINATE_TYPE>  (99) 
1
5
255

>  <PUBCHEM_EXACT_MASS>  (99) 
365.121628

>  <PUBCHEM_HEAVY_ATOM_COUNT>  (99) 
24

>  <PUBCHEM_ISOTOPIC_ATOM_COUNT>  (99) 
0

>  <PUBCHEM_IUPAC_CAS_NAME>  (99) 
N-[2-(4-chlorophenyl)sulfonylethyl]-1-(4-propan-2-ylphenyl)ethanamine

>  <PUBCHEM_IUPAC_INCHI>  (99) 
InChI=1S/C19H24ClNO2S/c1-14(2)16-4-6-17(7-5-16)15(3)21-12-13-24(22,23)19-10-8-18(20)9-11-19/h4-11,14-15,21H,12-13H2,1-3H3

>  <PUBCHEM_IUPAC_INCHIKEY>  (99) 
ZBTGKYKDWWHYQJ-UHFFFAOYSA-N

>  <PUBCHEM_IUPAC_NAME>  (99) 
N-[2-(4-chlorophenyl)sulfonylethyl]-1-(4-propan-2-ylphenyl)ethanamine

>  <PUBCHEM_IUPAC_OPENEYE_NAME>  (99) 
N-[2-(4-chlorophenyl)sulfonylethyl]-1-(4-isopropylphenyl)ethanamine

>  <PUBCHEM_IUPAC_SYSTEMATIC_NAME>  (99) 
N-[2-(4-chlorophenyl)sulfonylethyl]-1-(4-propan-2-ylphenyl)ethanamine

>  <PUBCHEM_IUPAC_TRADITIONAL_NAME>  (99) 
2-(4-chlorophenyl)sulfonylethyl-(1-p-cumenylethyl)amine

>  <PUBCHEM_MOLECULAR_FORMULA>  (99) 
C19H24ClNO2S

>  <PUBCHEM_MOLECULAR_WEIGHT>  (99) 
365.91736

>  <PUBCHEM_MONOISOTOPIC_WEIGHT>  (99) 
365.121628

>  <PUBCHEM_OPENEYE_CAN_SMILES>  (99) 
CC(C)C1=CC=C(C=C1)C(C)NCCS(=O)(=O)C2=CC=C(C=C2)Cl

>  <PUBCHEM_OPENEYE_ISO_SMILES>  (99) 
CC(C)C1=CC=C(C=C1)C(C)NCCS(=O)(=O)C2=CC=C(C=C2)Cl

>  <PUBCHEM_TOTAL_CHARGE>  (99) 
0

>  <PUBCHEM_XLOGP3_AA>  (99) 
4.4

$$$$
Largest isolated from Written by BCL::WriteToMDL,2934374
     RDKit          2D

 52 53  0 52  0  0  0  0  0  0999 V2000
    3.1433   -1.8024    0.0000 O   0  0  0  0  0  0  0  0  0  0  0  0
   -3.5819    1.5174    0.0000 N   0  0  0  0  0  0  0  0  0  0  0  0
   -0.8918    0.1895    0.0000 C   0  0  0  0  0  0  0  0  0  0  0  0
   -2.2368    0.8535    0.0000 C   0  0  0  0  0  0  0  0  0  0  0  0
    0.4533   -0.4745    0.0000 C   0  0  0  0  0  0  0  0  0  0  0  0
   -4.8294    0.6846    0.0000 C   0  0  0  0  0  0  0  0  0  0  0  0
    1.7983   -1.1384    0.0000 C   0  0  0  0  0  0  0  0  0  0  0  0
   -3.6794    3.0142    0.0000 C   0  0  0  0  0  0  0  0  0  0  0  0
   -6.0770   -0.1483    0.0000 C   0  0  0  0  0  0  0  0  0  0  0  0
    4.3909   -0.9695    0.0000 C   0  0  0  0  0  0  0  0  0  0  0  0
    5.7359   -1.6335    0.0000 C   0  0  0  0  0  0  0  0  0  0  0  0
    4.2934    0.5273    0.0000 C   0  0  0  0  0  0  0  0  0  0  0  0
    6.8859    0.6962    0.0000 C   0  0  0  0  0  0  0  0  0  0  0  0
    6.9835   -0.8007    0.0000 C   0  0  0  0  0  0  0  0  0  0  0  0
    5.5409    1.3601    0.0000 C   0  0  0  0  0  0  0  0  0  0  0  0
   -7.4220    0.5157    0.0000 C   0  0  0  0  0  0  0  0  0  0  0  0
   -5.9794   -1.6451    0.0000 C   0  0  0  0  0  0  0  0  0  0  0  0
    5.8334   -3.1303    0.0000 C   0  0  0  0  0  0  0  0  0  0  0  0
    2.9483    1.1912    0.0000 C   0  0  0  0  0  0  0  0  0  0  0  0
   -8.6695   -0.3172    0.0000 C   0  0  0  0  0  0  0  0  0  0  0  0
   -7.2270   -2.4780    0.0000 C   0  0  0  0  0  0  0  0  0  0  0  0
    8.1335    1.5290    0.0000 C   0  0  0  0  0  0  0  0  0  0  0  0
   -8.5720   -1.8140    0.0000 C   0  0  0  0  0  0  0  0  0  0  0  0
   -1.5558   -1.1556    0.0000 H   0  0  0  0  0  0  0  0  0  0  0  0
   -0.2278    1.5345    0.0000 H   0  0  0  0  0  0  0  0  0  0  0  0
   -1.5729    2.1985    0.0000 H   0  0  0  0  0  0  0  0  0  0  0  0
   -2.9008   -0.4916    0.0000 H   0  0  0  0  0  0  0  0  0  0  0  0
   -0.2107   -1.8195    0.0000 H   0  0  0  0  0  0  0  0  0  0  0  0
    1.1172    0.8706    0.0000 H   0  0  0  0  0  0  0  0  0  0  0  0
   -5.6623    1.9321    0.0000 H   0  0  0  0  0  0  0  0  0  0  0  0
   -3.9966   -0.5630    0.0000 H   0  0  0  0  0  0  0  0  0  0  0  0
    1.1343   -2.4835    0.0000 H   0  0  0  0  0  0  0  0  0  0  0  0
    2.2357   -0.4720    0.0000 H   0  0  0  0  0  0  0  0  0  0  0  0
   -5.1762    2.9167    0.0000 H   0  0  0  0  0  0  0  0  0  0  0  0
   -2.1826    3.1118    0.0000 H   0  0  0  0  0  0  0  0  0  0  0  0
   -3.7769    4.5111    0.0000 H   0  0  0  0  0  0  0  0  0  0  0  0
    8.3285   -1.4646    0.0000 H   0  0  0  0  0  0  0  0  0  0  0  0
    5.4434    2.8570    0.0000 H   0  0  0  0  0  0  0  0  0  0  0  0
   -7.5195    2.0125    0.0000 H   0  0  0  0  0  0  0  0  0  0  0  0
   -4.6344   -2.3091    0.0000 H   0  0  0  0  0  0  0  0  0  0  0  0
    4.3366   -3.2279    0.0000 H   0  0  0  0  0  0  0  0  0  0  0  0
    7.3303   -3.0328    0.0000 H   0  0  0  0  0  0  0  0  0  0  0  0
    5.9310   -4.6272    0.0000 H   0  0  0  0  0  0  0  0  0  0  0  0
    3.6123    2.5363    0.0000 H   0  0  0  0  0  0  0  0  0  0  0  0
    2.6852    0.4388    0.0000 H   0  0  0  0  0  0  0  0  0  0  0  0
    1.6033    1.8552    0.0000 H   0  0  0  0  0  0  0  0  0  0  0  0
    8.9663    0.2815    0.0000 H   0  0  0  0  0  0  0  0  0  0  0  0
    7.3006    2.7766    0.0000 H   0  0  0  0  0  0  0  0  0  0  0  0
    9.3810    2.3619    0.0000 H   0  0  0  0  0  0  0  0  0  0  0  0
  -10.0146    0.3468    0.0000 H   0  0  0  0  0  0  0  0  0  0  0  0
   -7.1295   -3.9748    0.0000 H   0  0  0  0  0  0  0  0  0  0  0  0
   -9.8196   -2.6469    0.0000 H   0  0  0  0  0  0  0  0  0  0  0  0
  1  7  1  0
  1 10  1  0
  2  4  1  0
  2  6  1  0
  2  8  1  0
  3  4  1  0
  3  5  1  0
  3 24  1  0
  3 25  1  0
  4 26  1  0
  4 27  1  0
  5  7  1  0
  5 28  1  0
  5 29  1  0
  6  9  1  0
  6 30  1  0
  6 31  1  0
  7 32  1  0
  7 33  1  0
  8 34  1  0
  8 35  1  0
  8 36  1  0
  9 16  2  0
  9 17  1  0
 10 11  2  0
 10 12  1  0
 11 14  1  0
 11 18  1  0
 12 15  2  0
 12 19  1  0
 13 14  2  0
 13 15  1  0
 13 22  1  0
 14 37  1  0
 15 38  1  0
 16 20  1  0
 16 39  1  0
 17 21  2  0
 17 40  1  0
 18 41  1  0
 18 42  1  0
 18 43  1  0
 19 44  1  0
 19 45  1  0
 19 46  1  0
 20 23  2  0
 20 50  1  0
 21 23  1  0
 21 51  1  0
 22 47  1  0
 22 48  1  0
 22 49  1  0
 23 52  1  0
M  STY  8   1 DAT   2 DAT   3 DAT   4 DAT   5 DAT   6 DAT   7 DAT   8 DAT
M  STY  8   9 DAT  10 DAT  11 DAT  12 DAT  13 DAT  14 DAT  15 DAT  16 DAT
M  STY  8  17 DAT  18 DAT  19 DAT  20 DAT  21 DAT  22 DAT  23 DAT  24 DAT
M  STY  8  25 DAT  26 DAT  27 DAT  28 DAT  29 DAT  30 DAT  31 DAT  32 DAT
M  STY  8  33 DAT  34 DAT  35 DAT  36 DAT  37 DAT  38 DAT  39 DAT  40 DAT
M  STY  8  41 DAT  42 DAT  43 DAT  44 DAT  45 DAT  46 DAT  47 DAT  48 DAT
M  STY  4  49 DAT  50 DAT  51 DAT  52 DAT
M  SAL   1  1   1
M  SED   1 [#8&h0]
M  SAL   2  1   2
M  SED   2 [#7&h0]
M  SAL   3  1   3
M  SED   3 [#6&h0]
M  SAL   4  1   4
M  SED   4 [#6&h0]
M  SAL   5  1   5
M  SED   5 [#6&h0]
M  SAL   6  1   6
M  SED   6 [#6&h0]
M  SAL   7  1   7
M  SED   7 [#6&h0]
M  SAL   8  1   8
M  SED   8 [#6&h0]
M  SAL   9  1   9
M  SED   9 [#6&h0]
M  SAL  10  1  10
M  SED  10 [#6&h0]
M  SAL  11  1  11
M  SED  11 [#6&h0]
M  SAL  12  1  12
M  SED  12 [#6&h0]
M  SAL  13  1  13
M  SED  13 [#6&h0]
M  SAL  14  1  14
M  SED  14 [#6&h0]
M  SAL  15  1  15
M  SED  15 [#6&h0]
M  SAL  16  1  16
M  SED  16 [#6&h0]
M  SAL  17  1  17
M  SED  17 [#6&h0]
M  SAL  18  1  18
M  SED  18 [#6&h0]
M  SAL  19  1  19
M  SED  19 [#6&h0]
M  SAL  20  1  20
M  SED  20 [#6&h0]
M  SAL  21  1  21
M  SED  21 [#6&h0]
M  SAL  22  1  22
M  SED  22 [#6&h0]
M  SAL  23  1  23
M  SED  23 [#6&h0]
M  SAL  24  1  24
M  SED  24 [#1&h0]
M  SAL  25  1  25
M  SED  25 [#1&h0]
M  SAL  26  1  26
M  SED  26 [#1&h0]
M  SAL  27  1  27
M  SED  27 [#1&h0]
M  SAL  28  1  28
M  SED  28 [#1&h0]
M  SAL  29  1  29
M  SED  29 [#1&h0]
M  SAL  30  1  30
M  SED  30 [#1&h0]
M  SAL  31  1  31
M  SED  31 [#1&h0]
M  SAL  32  1  32
M  SED  32 [#1&h0]
M  SAL  33  1  33
M  SED  33 [#1&h0]
M  SAL  34  1  34
M  SED  34 [#1&h0]
M  SAL  35  1  35
M  SED  35 [#1&h0]
M  SAL  36  1  36
M  SED  36 [#1&h0]
M  SAL  37  1  37
M  SED  37 [#1&h0]
M  SAL  38  1  38
M  SED  38 [#1&h0]
M  SAL  39  1  39
M  SED  39 [#1&h0]
M  SAL  40  1  40
M  SED  40 [#1&h0]
M  SAL  41  1  41
M  SED  41 [#1&h0]
M  SAL  42  1  42
M  SED  42 [#1&h0]
M  SAL  43  1  43
M  SED  43 [#1&h0]
M  SAL  44  1  44
M  SED  44 [#1&h0]
M  SAL  45  1  45
M  SED  45 [#1&h0]
M  SAL  46  1  46
M  SED  46 [#1&h0]
M  SAL  47  1  47
M  SED  47 [#1&h0]
M  SAL  48  1  48
M  SED  48 [#1&h0]
M  SAL  49  1  49
M  SED  49 [#1&h0]
M  SAL  50  1  50
M  SED  50 [#1&h0]
M  SAL  51  1  51
M  SED  51 [#1&h0]
M  SAL  52  1  52
M  SED  52 [#1&h0]
M  END
>  <Activity>  (100) 
0.01

>  <Mapped(file=2032.csv.activities,property=Cached(PUBCHEM_COMPOUND_CID))>  (100) 
100

>  <MatchIndices>  (100) 
101 

>  <PUBCHEM_ATOM_DEF_STEREO_COUNT>  (100) 
0

>  <PUBCHEM_ATOM_UDEF_STEREO_COUNT>  (100) 
0

>  <PUBCHEM_BONDANNOTATIONS>  (100) 
13  20  8
13  21  8
14  15  8
14  16  8
15  18  8
16  19  8
17  18  8
17  19  8
20  24  8
21  25  8
24  27  8
25  27  8

>  <PUBCHEM_BOND_DEF_STEREO_COUNT>  (100) 
0

>  <PUBCHEM_BOND_UDEF_STEREO_COUNT>  (100) 
0

>  <PUBCHEM_CACTVS_COMPLEXITY>  (100) 
373

>  <PUBCHEM_CACTVS_HBOND_ACCEPTOR>  (100) 
6

>  <PUBCHEM_CACTVS_HBOND_DONOR>  (100) 
2

>  <PUBCHEM_CACTVS_ROTATABLE_BOND>  (100) 
9

>  <PUBCHEM_CACTVS_SUBSKEYS>  (100) 
AAADceB6OAAAAAAAAAAAAAAAAAAAAAAAAAAwYAAAAAAAAAABQAAAHgAACAAADAThmAYyDoMABgCIAiDSCAKCCAAgIAAIiABMDIgNJiKEsRuGOCjkwBGJqAewwGAOIAACAAAIAABAAAQAABAAAAAAAAAAAA==

>  <PUBCHEM_CACTVS_TAUTO_COUNT>  (100) 
1

>  <PUBCHEM_CACTVS_TPSA>  (100) 
87.1

>  <PUBCHEM_COMPONENT_COUNT>  (100) 
2

>  <PUBCHEM_COMPOUND_CANONICALIZED>  (100) 
1

>  <PUBCHEM_COMPOUND_CID>  (100) 
2934374

>  <PUBCHEM_COORDINATE_TYPE>  (100) 
1
5
255

>  <PUBCHEM_EXACT_MASS>  (100) 
401.220223

>  <PUBCHEM_HEAVY_ATOM_COUNT>  (100) 
29

>  <PUBCHEM_ISOTOPIC_ATOM_COUNT>  (100) 
0

>  <PUBCHEM_IUPAC_CAS_NAME>  (100) 
N-methyl-N-(phenylmethyl)-4-(2,4,6-trimethylphenoxy)-1-butanamine; oxalic acid

>  <PUBCHEM_IUPAC_INCHI>  (100) 
InChI=1S/C21H29NO.C2H2O4/c1-17-14-18(2)21(19(3)15-17)23-13-9-8-12-22(4)16-20-10-6-5-7-11-20;3-1(4)2(5)6/h5-7,10-11,14-15H,8-9,12-13,16H2,1-4H3;(H,3,4)(H,5,6)

>  <PUBCHEM_IUPAC_INCHIKEY>  (100) 
NOQFLLUHURDPCM-UHFFFAOYSA-N

>  <PUBCHEM_IUPAC_NAME>  (100) 
N-benzyl-N-methyl-4-(2,4,6-trimethylphenoxy)butan-1-amine; oxalic acid

>  <PUBCHEM_IUPAC_OPENEYE_NAME>  (100) 
N-benzyl-N-methyl-4-(2,4,6-trimethylphenoxy)butan-1-amine; oxalic acid

>  <PUBCHEM_IUPAC_SYSTEMATIC_NAME>  (100) 
ethanedioic acid; N-methyl-N-(phenylmethyl)-4-(2,4,6-trimethylphenoxy)butan-1-amine

>  <PUBCHEM_IUPAC_TRADITIONAL_NAME>  (100) 
benzyl-methyl-[4-(2,4,6-trimethylphenoxy)butyl]amine; oxalic acid

>  <PUBCHEM_MOLECULAR_FORMULA>  (100) 
C23H31NO5

>  <PUBCHEM_MOLECULAR_WEIGHT>  (100) 
401.49594

>  <PUBCHEM_MONOISOTOPIC_WEIGHT>  (100) 
401.220223

>  <PUBCHEM_OPENEYE_CAN_SMILES>  (100) 
CC1=CC(=C(C(=C1)C)OCCCCN(C)CC2=CC=CC=C2)C.C(=O)(C(=O)O)O

>  <PUBCHEM_OPENEYE_ISO_SMILES>  (100) 
CC1=CC(=C(C(=C1)C)OCCCCN(C)CC2=CC=CC=C2)C.C(=O)(C(=O)O)O

>  <PUBCHEM_TOTAL_CHARGE>  (100) 
0

$$$$
Largest isolated from Written by BCL::WriteToMDL,24761107
     RDKit          2D

 37 39  0 37  0  0  0  0  0  0999 V2000
    3.7622   -2.5455    0.0000 Br  0  0  0  0  0  0  0  0  0  0  0  0
   -4.3418   -2.7357    0.0000 O   0  0  0  0  0  0  0  0  0  0  0  0
   -6.4762   -1.5804    0.0000 O   0  0  0  0  0  0  0  0  0  0  0  0
    6.3180   -0.9746    0.0000 O   0  0  0  0  0  0  0  0  0  0  0  0
   -0.2779    2.5953    0.0000 N   0  0  0  0  0  0  0  0  0  0  0  0
   -1.5558    1.8099    0.0000 C   0  0  0  0  0  0  0  0  0  0  0  0
   -2.8337    1.0244    0.0000 C   0  0  0  0  0  0  0  0  0  0  0  0
    1.0413    1.8813    0.0000 C   0  0  0  0  0  0  0  0  0  0  0  0
   -4.0704   -1.2604    0.0000 C   0  0  0  0  0  0  0  0  0  0  0  0
   -2.7925   -0.4750    0.0000 C   0  0  0  0  0  0  0  0  0  0  0  0
   -5.3895   -0.5465    0.0000 C   0  0  0  0  0  0  0  0  0  0  0  0
    2.3605    1.1674    0.0000 C   0  0  0  0  0  0  0  0  0  0  0  0
   -4.1529    1.7384    0.0000 C   0  0  0  0  0  0  0  0  0  0  0  0
   -5.4308    0.9530    0.0000 C   0  0  0  0  0  0  0  0  0  0  0  0
   -5.8287   -2.9335    0.0000 C   0  0  0  0  0  0  0  0  0  0  0  0
    2.4017   -0.3321    0.0000 C   0  0  0  0  0  0  0  0  0  0  0  0
    3.6384    1.9528    0.0000 C   0  0  0  0  0  0  0  0  0  0  0  0
    3.7209   -1.0461    0.0000 C   0  0  0  0  0  0  0  0  0  0  0  0
    4.9576    1.2388    0.0000 C   0  0  0  0  0  0  0  0  0  0  0  0
    4.9988   -0.2606    0.0000 C   0  0  0  0  0  0  0  0  0  0  0  0
    6.3593   -2.4740    0.0000 C   0  0  0  0  0  0  0  0  0  0  0  0
   -2.3412    3.0878    0.0000 H   0  0  0  0  0  0  0  0  0  0  0  0
   -0.7703    0.5320    0.0000 H   0  0  0  0  0  0  0  0  0  0  0  0
    1.7553    3.2005    0.0000 H   0  0  0  0  0  0  0  0  0  0  0  0
    0.3273    0.5622    0.0000 H   0  0  0  0  0  0  0  0  0  0  0  0
   -0.3191    4.0948    0.0000 H   0  0  0  0  0  0  0  0  0  0  0  0
   -1.4733   -1.1890    0.0000 H   0  0  0  0  0  0  0  0  0  0  0  0
   -4.1941    3.2379    0.0000 H   0  0  0  0  0  0  0  0  0  0  0  0
   -6.7500    1.6670    0.0000 H   0  0  0  0  0  0  0  0  0  0  0  0
   -5.4766   -4.3915    0.0000 H   0  0  0  0  0  0  0  0  0  0  0  0
   -7.2420   -3.4360    0.0000 H   0  0  0  0  0  0  0  0  0  0  0  0
    1.1238   -1.1175    0.0000 H   0  0  0  0  0  0  0  0  0  0  0  0
    3.5971    3.4522    0.0000 H   0  0  0  0  0  0  0  0  0  0  0  0
    6.2355    2.0243    0.0000 H   0  0  0  0  0  0  0  0  0  0  0  0
    7.8587   -2.4328    0.0000 H   0  0  0  0  0  0  0  0  0  0  0  0
    4.8598   -2.5153    0.0000 H   0  0  0  0  0  0  0  0  0  0  0  0
    6.4005   -3.9735    0.0000 H   0  0  0  0  0  0  0  0  0  0  0  0
  1 18  1  0
  2  9  1  0
  2 15  1  0
  3 11  1  0
  3 15  1  0
  4 20  1  0
  4 21  1  0
  5  6  1  0
  5  8  1  0
  5 26  1  0
  6  7  1  0
  6 22  1  0
  6 23  1  0
  7 10  1  0
  7 13  2  0
  8 12  1  0
  8 24  1  0
  8 25  1  0
  9 10  2  0
  9 11  1  0
 10 27  1  0
 11 14  2  0
 12 16  2  0
 12 17  1  0
 13 14  1  0
 13 28  1  0
 14 29  1  0
 15 30  1  0
 15 31  1  0
 16 18  1  0
 16 32  1  0
 17 19  2  0
 17 33  1  0
 18 20  2  0
 19 20  1  0
 19 34  1  0
 21 35  1  0
 21 36  1  0
 21 37  1  0
M  STY  8   1 DAT   2 DAT   3 DAT   4 DAT   5 DAT   6 DAT   7 DAT   8 DAT
M  STY  8   9 DAT  10 DAT  11 DAT  12 DAT  13 DAT  14 DAT  15 DAT  16 DAT
M  STY  8  17 DAT  18 DAT  19 DAT  20 DAT  21 DAT  22 DAT  23 DAT  24 DAT
M  STY  8  25 DAT  26 DAT  27 DAT  28 DAT  29 DAT  30 DAT  31 DAT  32 DAT
M  STY  5  33 DAT  34 DAT  35 DAT  36 DAT  37 DAT
M  SAL   1  1   1
M  SED   1 [#35&h0]
M  SAL   2  1   2
M  SED   2 [#8&h0]
M  SAL   3  1   3
M  SED   3 [#8&h0]
M  SAL   4  1   4
M  SED   4 [#8&h0]
M  SAL   5  1   5
M  SED   5 [#7&h0]
M  SAL   6  1   6
M  SED   6 [#6&h0]
M  SAL   7  1   7
M  SED   7 [#6&h0]
M  SAL   8  1   8
M  SED   8 [#6&h0]
M  SAL   9  1   9
M  SED   9 [#6&h0]
M  SAL  10  1  10
M  SED  10 [#6&h0]
M  SAL  11  1  11
M  SED  11 [#6&h0]
M  SAL  12  1  12
M  SED  12 [#6&h0]
M  SAL  13  1  13
M  SED  13 [#6&h0]
M  SAL  14  1  14
M  SED  14 [#6&h0]
M  SAL  15  1  15
M  SED  15 [#6&h0]
M  SAL  16  1  16
M  SED  16 [#6&h0]
M  SAL  17  1  17
M  SED  17 [#6&h0]
M  SAL  18  1  18
M  SED  18 [#6&h0]
M  SAL  19  1  19
M  SED  19 [#6&h0]
M  SAL  20  1  20
M  SED  20 [#6&h0]
M  SAL  21  1  21
M  SED  21 [#6&h0]
M  SAL  22  1  22
M  SED  22 [#1&h0]
M  SAL  23  1  23
M  SED  23 [#1&h0]
M  SAL  24  1  24
M  SED  24 [#1&h0]
M  SAL  25  1  25
M  SED  25 [#1&h0]
M  SAL  26  1  26
M  SED  26 [#1&h0]
M  SAL  27  1  27
M  SED  27 [#1&h0]
M  SAL  28  1  28
M  SED  28 [#1&h0]
M  SAL  29  1  29
M  SED  29 [#1&h0]
M  SAL  30  1  30
M  SED  30 [#1&h0]
M  SAL  31  1  31
M  SED  31 [#1&h0]
M  SAL  32  1  32
M  SED  32 [#1&h0]
M  SAL  33  1  33
M  SED  33 [#1&h0]
M  SAL  34  1  34
M  SED  34 [#1&h0]
M  SAL  35  1  35
M  SED  35 [#1&h0]
M  SAL  36  1  36
M  SED  36 [#1&h0]
M  SAL  37  1  37
M  SED  37 [#1&h0]
M  END
>  <Activity>  (101) 
0.01

>  <Mapped(file=2032.csv.activities,property=Cached(PUBCHEM_COMPOUND_CID))>  (101) 
100

>  <MatchIndices>  (101) 
6 

>  <PUBCHEM_ATOM_DEF_STEREO_COUNT>  (101) 
0

>  <PUBCHEM_ATOM_UDEF_STEREO_COUNT>  (101) 
0

>  <PUBCHEM_BONDANNOTATIONS>  (101) 
11  14  8
11  17  8
13  14  8
13  15  8
15  18  8
16  20  8
16  21  8
17  18  8
20  22  8
21  23  8
22  24  8
23  24  8

>  <PUBCHEM_BOND_DEF_STEREO_COUNT>  (101) 
0

>  <PUBCHEM_BOND_UDEF_STEREO_COUNT>  (101) 
0

>  <PUBCHEM_CACTVS_COMPLEXITY>  (101) 
402

>  <PUBCHEM_CACTVS_HBOND_ACCEPTOR>  (101) 
8

>  <PUBCHEM_CACTVS_HBOND_DONOR>  (101) 
3

>  <PUBCHEM_CACTVS_ROTATABLE_BOND>  (101) 
6

>  <PUBCHEM_CACTVS_SUBSKEYS>  (101) 
AAADceB6OAAAEAAAAAAAAAAAAAAAASAAAAAwYAAAAAAAAEgBQAAAHgBQCAABrATBmAcyDoLABgCIAiDSCAKCCAAgIAQIiIBOjKgdJiKEsRukMCpkwBGPqhew0BIOIAABEAAARABAAAIgAACIAAAAAAAAAA==

>  <PUBCHEM_CACTVS_TAUTO_COUNT>  (101) 
1

>  <PUBCHEM_CACTVS_TPSA>  (101) 
114

>  <PUBCHEM_COMPONENT_COUNT>  (101) 
2

>  <PUBCHEM_COMPOUND_CANONICALIZED>  (101) 
1

>  <PUBCHEM_COMPOUND_CID>  (101) 
24761107

>  <PUBCHEM_COORDINATE_TYPE>  (101) 
1
5
255

>  <PUBCHEM_EXACT_MASS>  (101) 
439.026664

>  <PUBCHEM_HEAVY_ATOM_COUNT>  (101) 
27

>  <PUBCHEM_ISOTOPIC_ATOM_COUNT>  (101) 
0

>  <PUBCHEM_IUPAC_CAS_NAME>  (101) 
1-(1,3-benzodioxol-5-yl)-N-[(3-bromo-4-methoxyphenyl)methyl]methanamine; oxalic acid

>  <PUBCHEM_IUPAC_INCHI>  (101) 
InChI=1S/C16H16BrNO3.C2H2O4/c1-19-14-4-2-11(6-13(14)17)8-18-9-12-3-5-15-16(7-12)21-10-20-15;3-1(4)2(5)6/h2-7,18H,8-10H2,1H3;(H,3,4)(H,5,6)

>  <PUBCHEM_IUPAC_INCHIKEY>  (101) 
FFWPWJCUFAABLI-UHFFFAOYSA-N

>  <PUBCHEM_IUPAC_NAME>  (101) 
1-(1,3-benzodioxol-5-yl)-N-[(3-bromo-4-methoxyphenyl)methyl]methanamine; oxalic acid

>  <PUBCHEM_IUPAC_OPENEYE_NAME>  (101) 
1-(1,3-benzodioxol-5-yl)-N-[(3-bromo-4-methoxy-phenyl)methyl]methanamine; oxalic acid

>  <PUBCHEM_IUPAC_SYSTEMATIC_NAME>  (101) 
1-(1,3-benzodioxol-5-yl)-N-[(3-bromanyl-4-methoxy-phenyl)methyl]methanamine; ethanedioic acid

>  <PUBCHEM_IUPAC_TRADITIONAL_NAME>  (101) 
(3-bromo-4-methoxy-benzyl)-piperonyl-amine; oxalic acid

>  <PUBCHEM_MOLECULAR_FORMULA>  (101) 
C18H18BrNO7

>  <PUBCHEM_MOLECULAR_WEIGHT>  (101) 
440.24202

>  <PUBCHEM_MONOISOTOPIC_WEIGHT>  (101) 
439.026664

>  <PUBCHEM_OPENEYE_CAN_SMILES>  (101) 
COC1=C(C=C(C=C1)CNCC2=CC3=C(C=C2)OCO3)Br.C(=O)(C(=O)O)O

>  <PUBCHEM_OPENEYE_ISO_SMILES>  (101) 
COC1=C(C=C(C=C1)CNCC2=CC3=C(C=C2)OCO3)Br.C(=O)(C(=O)O)O

>  <PUBCHEM_TOTAL_CHARGE>  (101) 
0

$$$$
Largest isolated from Written by BCL::WriteToMDL,2899426
     RDKit          2D

 48 49  0 48  0  0  0  0  0  0999 V2000
    4.2608    0.5910    0.0000 O   0  0  0  0  0  0  0  0  0  0  0  0
    1.3515   -0.1407    0.0000 O   0  0  0  0  0  0  0  0  0  0  0  0
   -3.0126   -1.2384    0.0000 O   0  0  0  0  0  0  0  0  0  0  0  0
   -2.1917    1.6471    0.0000 O   0  0  0  0  0  0  0  0  0  0  0  0
   -5.9220   -1.9702    0.0000 O   0  0  0  0  0  0  0  0  0  0  0  0
    5.7155    0.9569    0.0000 C   0  0  0  0  0  0  0  0  0  0  0  0
    3.8504   -0.8517    0.0000 C   0  0  0  0  0  0  0  0  0  0  0  0
    2.3957   -1.2176    0.0000 C   0  0  0  0  0  0  0  0  0  0  0  0
   -0.1032   -0.5066    0.0000 C   0  0  0  0  0  0  0  0  0  0  0  0
   -1.5579   -0.8725    0.0000 C   0  0  0  0  0  0  0  0  0  0  0  0
   -4.0568   -0.1615    0.0000 C   0  0  0  0  0  0  0  0  0  0  0  0
    5.3496    2.4116    0.0000 C   0  0  0  0  0  0  0  0  0  0  0  0
    7.1702    1.3228    0.0000 C   0  0  0  0  0  0  0  0  0  0  0  0
    4.8946   -1.9286    0.0000 C   0  0  0  0  0  0  0  0  0  0  0  0
    1.9852   -2.6603    0.0000 C   0  0  0  0  0  0  0  0  0  0  0  0
   -3.6464    1.2812    0.0000 C   0  0  0  0  0  0  0  0  0  0  0  0
   -5.5115   -0.5274    0.0000 C   0  0  0  0  0  0  0  0  0  0  0  0
    4.4841   -3.3713    0.0000 C   0  0  0  0  0  0  0  0  0  0  0  0
    3.0294   -3.7372    0.0000 C   0  0  0  0  0  0  0  0  0  0  0  0
   -4.6906    2.3581    0.0000 C   0  0  0  0  0  0  0  0  0  0  0  0
   -6.5557    0.5494    0.0000 C   0  0  0  0  0  0  0  0  0  0  0  0
   -6.1453    1.9922    0.0000 C   0  0  0  0  0  0  0  0  0  0  0  0
   -1.7812    3.0898    0.0000 C   0  0  0  0  0  0  0  0  0  0  0  0
   -7.3767   -2.3361    0.0000 C   0  0  0  0  0  0  0  0  0  0  0  0
    6.0814   -0.4978    0.0000 H   0  0  0  0  0  0  0  0  0  0  0  0
   -0.4691    0.9481    0.0000 H   0  0  0  0  0  0  0  0  0  0  0  0
    0.2627   -1.9613    0.0000 H   0  0  0  0  0  0  0  0  0  0  0  0
   -1.1920   -2.3272    0.0000 H   0  0  0  0  0  0  0  0  0  0  0  0
   -1.9238    0.5822    0.0000 H   0  0  0  0  0  0  0  0  0  0  0  0
    7.5361   -0.1319    0.0000 H   0  0  0  0  0  0  0  0  0  0  0  0
    6.1759    2.7308    0.0000 H   0  0  0  0  0  0  0  0  0  0  0  0
    3.8950    2.0457    0.0000 H   0  0  0  0  0  0  0  0  0  0  0  0
    4.9838    3.8663    0.0000 H   0  0  0  0  0  0  0  0  0  0  0  0
    7.0605    2.2017    0.0000 H   0  0  0  0  0  0  0  0  0  0  0  0
    8.6249    1.6887    0.0000 H   0  0  0  0  0  0  0  0  0  0  0  0
    6.3493   -1.5627    0.0000 H   0  0  0  0  0  0  0  0  0  0  0  0
    0.5305   -3.0262    0.0000 H   0  0  0  0  0  0  0  0  0  0  0  0
    5.5283   -4.4481    0.0000 H   0  0  0  0  0  0  0  0  0  0  0  0
    2.6189   -5.1799    0.0000 H   0  0  0  0  0  0  0  0  0  0  0  0
   -4.2801    3.8008    0.0000 H   0  0  0  0  0  0  0  0  0  0  0  0
   -8.0104    0.1835    0.0000 H   0  0  0  0  0  0  0  0  0  0  0  0
   -7.1895    3.0690    0.0000 H   0  0  0  0  0  0  0  0  0  0  0  0
   -0.3384    2.6794    0.0000 H   0  0  0  0  0  0  0  0  0  0  0  0
   -3.2239    3.5003    0.0000 H   0  0  0  0  0  0  0  0  0  0  0  0
   -1.3707    4.5326    0.0000 H   0  0  0  0  0  0  0  0  0  0  0  0
   -7.0108   -3.7908    0.0000 H   0  0  0  0  0  0  0  0  0  0  0  0
   -7.7426   -0.8814    0.0000 H   0  0  0  0  0  0  0  0  0  0  0  0
   -8.8314   -2.7020    0.0000 H   0  0  0  0  0  0  0  0  0  0  0  0
  1  6  1  0
  1  7  1  0
  2  8  1  0
  2  9  1  0
  3 10  1  0
  3 11  1  0
  4 16  1  0
  4 23  1  0
  5 17  1  0
  5 24  1  0
  6 12  1  0
  6 13  1  0
  6 25  1  0
  7  8  2  0
  7 14  1  0
  8 15  1  0
  9 10  1  0
  9 26  1  0
  9 27  1  0
 10 28  1  0
 10 29  1  0
 11 16  2  0
 11 17  1  0
 12 31  1  0
 12 32  1  0
 12 33  1  0
 13 30  1  0
 13 34  1  0
 13 35  1  0
 14 18  2  0
 14 36  1  0
 15 19  2  0
 15 37  1  0
 16 20  1  0
 17 21  2  0
 18 19  1  0
 18 38  1  0
 19 39  1  0
 20 22  2  0
 20 40  1  0
 21 22  1  0
 21 41  1  0
 22 42  1  0
 23 43  1  0
 23 44  1  0
 23 45  1  0
 24 46  1  0
 24 47  1  0
 24 48  1  0
M  STY  8   1 DAT   2 DAT   3 DAT   4 DAT   5 DAT   6 DAT   7 DAT   8 DAT
M  STY  8   9 DAT  10 DAT  11 DAT  12 DAT  13 DAT  14 DAT  15 DAT  16 DAT
M  STY  8  17 DAT  18 DAT  19 DAT  20 DAT  21 DAT  22 DAT  23 DAT  24 DAT
M  STY  8  25 DAT  26 DAT  27 DAT  28 DAT  29 DAT  30 DAT  31 DAT  32 DAT
M  STY  8  33 DAT  34 DAT  35 DAT  36 DAT  37 DAT  38 DAT  39 DAT  40 DAT
M  STY  8  41 DAT  42 DAT  43 DAT  44 DAT  45 DAT  46 DAT  47 DAT  48 DAT
M  SAL   1  1   1
M  SED   1 [#8&h0]
M  SAL   2  1   2
M  SED   2 [#8&h0]
M  SAL   3  1   3
M  SED   3 [#8&h0]
M  SAL   4  1   4
M  SED   4 [#8&h0]
M  SAL   5  1   5
M  SED   5 [#8&h0]
M  SAL   6  1   6
M  SED   6 [#6&h0]
M  SAL   7  1   7
M  SED   7 [#6&h0]
M  SAL   8  1   8
M  SED   8 [#6&h0]
M  SAL   9  1   9
M  SED   9 [#6&h0]
M  SAL  10  1  10
M  SED  10 [#6&h0]
M  SAL  11  1  11
M  SED  11 [#6&h0]
M  SAL  12  1  12
M  SED  12 [#6&h0]
M  SAL  13  1  13
M  SED  13 [#6&h0]
M  SAL  14  1  14
M  SED  14 [#6&h0]
M  SAL  15  1  15
M  SED  15 [#6&h0]
M  SAL  16  1  16
M  SED  16 [#6&h0]
M  SAL  17  1  17
M  SED  17 [#6&h0]
M  SAL  18  1  18
M  SED  18 [#6&h0]
M  SAL  19  1  19
M  SED  19 [#6&h0]
M  SAL  20  1  20
M  SED  20 [#6&h0]
M  SAL  21  1  21
M  SED  21 [#6&h0]
M  SAL  22  1  22
M  SED  22 [#6&h0]
M  SAL  23  1  23
M  SED  23 [#6&h0]
M  SAL  24  1  24
M  SED  24 [#6&h0]
M  SAL  25  1  25
M  SED  25 [#1&h0]
M  SAL  26  1  26
M  SED  26 [#1&h0]
M  SAL  27  1  27
M  SED  27 [#1&h0]
M  SAL  28  1  28
M  SED  28 [#1&h0]
M  SAL  29  1  29
M  SED  29 [#1&h0]
M  SAL  30  1  30
M  SED  30 [#1&h0]
M  SAL  31  1  31
M  SED  31 [#1&h0]
M  SAL  32  1  32
M  SED  32 [#1&h0]
M  SAL  33  1  33
M  SED  33 [#1&h0]
M  SAL  34  1  34
M  SED  34 [#1&h0]
M  SAL  35  1  35
M  SED  35 [#1&h0]
M  SAL  36  1  36
M  SED  36 [#1&h0]
M  SAL  37  1  37
M  SED  37 [#1&h0]
M  SAL  38  1  38
M  SED  38 [#1&h0]
M  SAL  39  1  39
M  SED  39 [#1&h0]
M  SAL  40  1  40
M  SED  40 [#1&h0]
M  SAL  41  1  41
M  SED  41 [#1&h0]
M  SAL  42  1  42
M  SED  42 [#1&h0]
M  SAL  43  1  43
M  SED  43 [#1&h0]
M  SAL  44  1  44
M  SED  44 [#1&h0]
M  SAL  45  1  45
M  SED  45 [#1&h0]
M  SAL  46  1  46
M  SED  46 [#1&h0]
M  SAL  47  1  47
M  SED  47 [#1&h0]
M  SAL  48  1  48
M  SED  48 [#1&h0]
M  END
>  <Activity>  (102) 
0.01

>  <Mapped(file=2032.csv.activities,property=Cached(PUBCHEM_COMPOUND_CID))>  (102) 
100

>  <MatchIndices>  (102) 
78 

>  <PUBCHEM_ATOM_DEF_STEREO_COUNT>  (102) 
0

>  <PUBCHEM_ATOM_UDEF_STEREO_COUNT>  (102) 
0

>  <PUBCHEM_BONDANNOTATIONS>  (102) 
11  16  8
11  17  8
14  18  8
15  19  8
16  20  8
17  21  8
18  19  8
20  22  8
21  22  8
7  14  8
7  8  8
8  15  8

>  <PUBCHEM_BOND_DEF_STEREO_COUNT>  (102) 
0

>  <PUBCHEM_BOND_UDEF_STEREO_COUNT>  (102) 
0

>  <PUBCHEM_CACTVS_COMPLEXITY>  (102) 
324

>  <PUBCHEM_CACTVS_HBOND_ACCEPTOR>  (102) 
5

>  <PUBCHEM_CACTVS_HBOND_DONOR>  (102) 
0

>  <PUBCHEM_CACTVS_ROTATABLE_BOND>  (102) 
9

>  <PUBCHEM_CACTVS_SUBSKEYS>  (102) 
AAADceB4OAAAAAAAAAAAAAAAAAAAAAAAAAAwYAAAAAAAAAABQAAAGgAAAAAACBSgkAIyBoAABACAACBCAAACCAAgIAAIiAAGiIgNJyKEMRqCOCKlwBUKqAeAYAwAAAAACAAAQAAAAAAQAACAAAAAAAAAAA==

>  <PUBCHEM_CACTVS_TAUTO_COUNT>  (102) 
1

>  <PUBCHEM_CACTVS_TPSA>  (102) 
46.2

>  <PUBCHEM_COMPONENT_COUNT>  (102) 
1

>  <PUBCHEM_COMPOUND_CANONICALIZED>  (102) 
1

>  <PUBCHEM_COMPOUND_CID>  (102) 
2899426

>  <PUBCHEM_COORDINATE_TYPE>  (102) 
1
5
255

>  <PUBCHEM_EXACT_MASS>  (102) 
332.162374

>  <PUBCHEM_HEAVY_ATOM_COUNT>  (102) 
24

>  <PUBCHEM_ISOTOPIC_ATOM_COUNT>  (102) 
0

>  <PUBCHEM_IUPAC_CAS_NAME>  (102) 
1,3-dimethoxy-2-[2-(2-propan-2-yloxyphenoxy)ethoxy]benzene

>  <PUBCHEM_IUPAC_INCHI>  (102) 
InChI=1S/C19H24O5/c1-14(2)24-16-9-6-5-8-15(16)22-12-13-23-19-17(20-3)10-7-11-18(19)21-4/h5-11,14H,12-13H2,1-4H3

>  <PUBCHEM_IUPAC_INCHIKEY>  (102) 
ZHEGJJBIWUGAFU-UHFFFAOYSA-N

>  <PUBCHEM_IUPAC_NAME>  (102) 
1,3-dimethoxy-2-[2-(2-propan-2-yloxyphenoxy)ethoxy]benzene

>  <PUBCHEM_IUPAC_OPENEYE_NAME>  (102) 
2-[2-(2-isopropoxyphenoxy)ethoxy]-1,3-dimethoxy-benzene

>  <PUBCHEM_IUPAC_SYSTEMATIC_NAME>  (102) 
1,3-dimethoxy-2-[2-(2-propan-2-yloxyphenoxy)ethoxy]benzene

>  <PUBCHEM_IUPAC_TRADITIONAL_NAME>  (102) 
2-[2-(2-isopropoxyphenoxy)ethoxy]-1,3-dimethoxy-benzene

>  <PUBCHEM_MOLECULAR_FORMULA>  (102) 
C19H24O5

>  <PUBCHEM_MOLECULAR_WEIGHT>  (102) 
332.39086

>  <PUBCHEM_MONOISOTOPIC_WEIGHT>  (102) 
332.162374

>  <PUBCHEM_OPENEYE_CAN_SMILES>  (102) 
CC(C)OC1=CC=CC=C1OCCOC2=C(C=CC=C2OC)OC

>  <PUBCHEM_OPENEYE_ISO_SMILES>  (102) 
CC(C)OC1=CC=CC=C1OCCOC2=C(C=CC=C2OC)OC

>  <PUBCHEM_TOTAL_CHARGE>  (102) 
0

>  <PUBCHEM_XLOGP3_AA>  (102) 
4.3

$$$$
Largest isolated from Written by BCL::WriteToMDL,17367616
     RDKit          2D

 48 50  0 48  0  0  0  0  0  0999 V2000
   -0.9406    0.6965    0.0000 O   0  0  0  0  0  0  0  0  0  0  0  0
   -6.1121    1.2025    0.0000 O   0  0  0  0  0  0  0  0  0  0  0  0
   -0.0130   -3.1622    0.0000 N   0  0  0  0  0  0  0  0  0  0  0  0
    6.4966   -1.0315    0.0000 N   0  0  0  0  0  0  0  0  0  0  0  0
    2.7188   -1.9224    0.0000 C   0  0  0  0  0  0  0  0  0  0  0  0
    4.0848   -1.3025    0.0000 C   0  0  0  0  0  0  0  0  0  0  0  0
    1.3529   -2.5423    0.0000 C   0  0  0  0  0  0  0  0  0  0  0  0
    4.3861    0.1669    0.0000 C   0  0  0  0  0  0  0  0  0  0  0  0
    5.8767    0.3344    0.0000 C   0  0  0  0  0  0  0  0  0  0  0  0
   -1.2328   -2.2893    0.0000 C   0  0  0  0  0  0  0  0  0  0  0  0
    5.3891   -2.0431    0.0000 C   0  0  0  0  0  0  0  0  0  0  0  0
   -2.4526   -1.4163    0.0000 C   0  0  0  0  0  0  0  0  0  0  0  0
    3.4957    1.3741    0.0000 C   0  0  0  0  0  0  0  0  0  0  0  0
   -2.3065    0.0766    0.0000 C   0  0  0  0  0  0  0  0  0  0  0  0
    6.4770    1.7091    0.0000 C   0  0  0  0  0  0  0  0  0  0  0  0
   -3.5263    0.9495    0.0000 C   0  0  0  0  0  0  0  0  0  0  0  0
   -3.8185   -2.0362    0.0000 C   0  0  0  0  0  0  0  0  0  0  0  0
    4.0960    2.7488    0.0000 C   0  0  0  0  0  0  0  0  0  0  0  0
   -4.8922    0.3296    0.0000 C   0  0  0  0  0  0  0  0  0  0  0  0
    5.5866    2.9163    0.0000 C   0  0  0  0  0  0  0  0  0  0  0  0
   -5.0383   -1.1633    0.0000 C   0  0  0  0  0  0  0  0  0  0  0  0
   -3.3802    2.4424    0.0000 C   0  0  0  0  0  0  0  0  0  0  0  0
   -0.7945    2.1893    0.0000 C   0  0  0  0  0  0  0  0  0  0  0  0
   -7.4780    0.5826    0.0000 C   0  0  0  0  0  0  0  0  0  0  0  0
    2.0989   -0.5565    0.0000 H   0  0  0  0  0  0  0  0  0  0  0  0
    3.3388   -3.2883    0.0000 H   0  0  0  0  0  0  0  0  0  0  0  0
    1.9729   -3.9082    0.0000 H   0  0  0  0  0  0  0  0  0  0  0  0
    0.7330   -1.1764    0.0000 H   0  0  0  0  0  0  0  0  0  0  0  0
   -2.1057   -3.5091    0.0000 H   0  0  0  0  0  0  0  0  0  0  0  0
   -0.3598   -1.0695    0.0000 H   0  0  0  0  0  0  0  0  0  0  0  0
   -0.1591   -4.6551    0.0000 H   0  0  0  0  0  0  0  0  0  0  0  0
    5.5566   -3.5338    0.0000 H   0  0  0  0  0  0  0  0  0  0  0  0
    7.9661   -1.3328    0.0000 H   0  0  0  0  0  0  0  0  0  0  0  0
    2.0051    1.2066    0.0000 H   0  0  0  0  0  0  0  0  0  0  0  0
    7.9676    1.8766    0.0000 H   0  0  0  0  0  0  0  0  0  0  0  0
   -3.9646   -3.5291    0.0000 H   0  0  0  0  0  0  0  0  0  0  0  0
    3.2056    3.9559    0.0000 H   0  0  0  0  0  0  0  0  0  0  0  0
    6.1869    4.2909    0.0000 H   0  0  0  0  0  0  0  0  0  0  0  0
   -6.4042   -1.7832    0.0000 H   0  0  0  0  0  0  0  0  0  0  0  0
   -2.5833    2.4620    0.0000 H   0  0  0  0  0  0  0  0  0  0  0  0
   -4.8731    2.5885    0.0000 H   0  0  0  0  0  0  0  0  0  0  0  0
   -3.2341    3.9352    0.0000 H   0  0  0  0  0  0  0  0  0  0  0  0
   -1.5725    2.3631    0.0000 H   0  0  0  0  0  0  0  0  0  0  0  0
    0.6984    2.0432    0.0000 H   0  0  0  0  0  0  0  0  0  0  0  0
   -0.6484    3.6822    0.0000 H   0  0  0  0  0  0  0  0  0  0  0  0
   -8.0979    1.9485    0.0000 H   0  0  0  0  0  0  0  0  0  0  0  0
   -6.8580   -0.7833    0.0000 H   0  0  0  0  0  0  0  0  0  0  0  0
   -8.8439   -0.0373    0.0000 H   0  0  0  0  0  0  0  0  0  0  0  0
  1 14  1  0
  1 23  1  0
  2 19  1  0
  2 24  1  0
  3  7  1  0
  3 10  1  0
  3 31  1  0
  4  9  1  0
  4 11  1  0
  4 33  1  0
  5  6  1  0
  5  7  1  0
  5 25  1  0
  5 26  1  0
  6  8  1  0
  6 11  2  0
  7 27  1  0
  7 28  1  0
  8  9  2  0
  8 13  1  0
  9 15  1  0
 10 12  1  0
 10 29  1  0
 10 30  1  0
 11 32  1  0
 12 14  2  0
 12 17  1  0
 13 18  2  0
 13 34  1  0
 14 16  1  0
 15 20  2  0
 15 35  1  0
 16 19  2  0
 16 22  1  0
 17 21  2  0
 17 36  1  0
 18 20  1  0
 18 37  1  0
 19 21  1  0
 20 38  1  0
 21 39  1  0
 22 40  1  0
 22 41  1  0
 22 42  1  0
 23 43  1  0
 23 44  1  0
 23 45  1  0
 24 46  1  0
 24 47  1  0
 24 48  1  0
M  STY  8   1 DAT   2 DAT   3 DAT   4 DAT   5 DAT   6 DAT   7 DAT   8 DAT
M  STY  8   9 DAT  10 DAT  11 DAT  12 DAT  13 DAT  14 DAT  15 DAT  16 DAT
M  STY  8  17 DAT  18 DAT  19 DAT  20 DAT  21 DAT  22 DAT  23 DAT  24 DAT
M  STY  8  25 DAT  26 DAT  27 DAT  28 DAT  29 DAT  30 DAT  31 DAT  32 DAT
M  STY  8  33 DAT  34 DAT  35 DAT  36 DAT  37 DAT  38 DAT  39 DAT  40 DAT
M  STY  8  41 DAT  42 DAT  43 DAT  44 DAT  45 DAT  46 DAT  47 DAT  48 DAT
M  SAL   1  1   1
M  SED   1 [#8&h0]
M  SAL   2  1   2
M  SED   2 [#8&h0]
M  SAL   3  1   3
M  SED   3 [#7&h0]
M  SAL   4  1   4
M  SED   4 [#7&h0]
M  SAL   5  1   5
M  SED   5 [#6&h0]
M  SAL   6  1   6
M  SED   6 [#6&h0]
M  SAL   7  1   7
M  SED   7 [#6&h0]
M  SAL   8  1   8
M  SED   8 [#6&h0]
M  SAL   9  1   9
M  SED   9 [#6&h0]
M  SAL  10  1  10
M  SED  10 [#6&h0]
M  SAL  11  1  11
M  SED  11 [#6&h0]
M  SAL  12  1  12
M  SED  12 [#6&h0]
M  SAL  13  1  13
M  SED  13 [#6&h0]
M  SAL  14  1  14
M  SED  14 [#6&h0]
M  SAL  15  1  15
M  SED  15 [#6&h0]
M  SAL  16  1  16
M  SED  16 [#6&h0]
M  SAL  17  1  17
M  SED  17 [#6&h0]
M  SAL  18  1  18
M  SED  18 [#6&h0]
M  SAL  19  1  19
M  SED  19 [#6&h0]
M  SAL  20  1  20
M  SED  20 [#6&h0]
M  SAL  21  1  21
M  SED  21 [#6&h0]
M  SAL  22  1  22
M  SED  22 [#6&h0]
M  SAL  23  1  23
M  SED  23 [#6&h0]
M  SAL  24  1  24
M  SED  24 [#6&h0]
M  SAL  25  1  25
M  SED  25 [#1&h0]
M  SAL  26  1  26
M  SED  26 [#1&h0]
M  SAL  27  1  27
M  SED  27 [#1&h0]
M  SAL  28  1  28
M  SED  28 [#1&h0]
M  SAL  29  1  29
M  SED  29 [#1&h0]
M  SAL  30  1  30
M  SED  30 [#1&h0]
M  SAL  31  1  31
M  SED  31 [#1&h0]
M  SAL  32  1  32
M  SED  32 [#1&h0]
M  SAL  33  1  33
M  SED  33 [#1&h0]
M  SAL  34  1  34
M  SED  34 [#1&h0]
M  SAL  35  1  35
M  SED  35 [#1&h0]
M  SAL  36  1  36
M  SED  36 [#1&h0]
M  SAL  37  1  37
M  SED  37 [#1&h0]
M  SAL  38  1  38
M  SED  38 [#1&h0]
M  SAL  39  1  39
M  SED  39 [#1&h0]
M  SAL  40  1  40
M  SED  40 [#1&h0]
M  SAL  41  1  41
M  SED  41 [#1&h0]
M  SAL  42  1  42
M  SED  42 [#1&h0]
M  SAL  43  1  43
M  SED  43 [#1&h0]
M  SAL  44  1  44
M  SED  44 [#1&h0]
M  SAL  45  1  45
M  SED  45 [#1&h0]
M  SAL  46  1  46
M  SED  46 [#1&h0]
M  SAL  47  1  47
M  SED  47 [#1&h0]
M  SAL  48  1  48
M  SED  48 [#1&h0]
M  END
>  <Activity>  (103) 
0.01

>  <Mapped(file=2032.csv.activities,property=Cached(PUBCHEM_COMPOUND_CID))>  (103) 
100

>  <MatchIndices>  (103) 
212 

>  <PUBCHEM_ATOM_DEF_STEREO_COUNT>  (103) 
0

>  <PUBCHEM_ATOM_UDEF_STEREO_COUNT>  (103) 
0

>  <PUBCHEM_BONDANNOTATIONS>  (103) 
10  12  8
10  15  8
12  13  8
12  17  8
13  19  8
16  18  8
16  21  8
17  22  8
18  20  8
19  24  8
20  23  8
21  25  8
22  24  8
23  25  8
8  13  8
8  15  8

>  <PUBCHEM_BOND_DEF_STEREO_COUNT>  (103) 
0

>  <PUBCHEM_BOND_UDEF_STEREO_COUNT>  (103) 
0

>  <PUBCHEM_CACTVS_COMPLEXITY>  (103) 
450

>  <PUBCHEM_CACTVS_HBOND_ACCEPTOR>  (103) 
7

>  <PUBCHEM_CACTVS_HBOND_DONOR>  (103) 
4

>  <PUBCHEM_CACTVS_ROTATABLE_BOND>  (103) 
8

>  <PUBCHEM_CACTVS_SUBSKEYS>  (103) 
AAADceB7OAAAAAAAAAAAAAAAAAAAAWAAAAAwYAAAAAAAAFgB9AAAHgAQCAAADAzBngY+zvLJlgCoAzT3TAKCiCAxIiAI2aB+bJgNJ+LEsZuEMChn0BXJ6AeQ8O4OoAACCAAKAABAAAQQABQAAAAAAAAAAA==

>  <PUBCHEM_CACTVS_TAUTO_COUNT>  (103) 
1

>  <PUBCHEM_CACTVS_TPSA>  (103) 
121

>  <PUBCHEM_COMPONENT_COUNT>  (103) 
2

>  <PUBCHEM_COMPOUND_CANONICALIZED>  (103) 
1

>  <PUBCHEM_COMPOUND_CID>  (103) 
17367616

>  <PUBCHEM_COORDINATE_TYPE>  (103) 
1
5
255

>  <PUBCHEM_EXACT_MASS>  (103) 
414.179087

>  <PUBCHEM_HEAVY_ATOM_COUNT>  (103) 
30

>  <PUBCHEM_ISOTOPIC_ATOM_COUNT>  (103) 
0

>  <PUBCHEM_IUPAC_CAS_NAME>  (103) 
N-[(2,4-dimethoxy-3-methylphenyl)methyl]-2-(1H-indol-3-yl)ethanamine; oxalic acid

>  <PUBCHEM_IUPAC_INCHI>  (103) 
InChI=1S/C20H24N2O2.C2H2O4/c1-14-19(23-2)9-8-16(20(14)24-3)12-21-11-10-15-13-22-18-7-5-4-6-17(15)18;3-1(4)2(5)6/h4-9,13,21-22H,10-12H2,1-3H3;(H,3,4)(H,5,6)

>  <PUBCHEM_IUPAC_INCHIKEY>  (103) 
FLIIARILWXPYLW-UHFFFAOYSA-N

>  <PUBCHEM_IUPAC_NAME>  (103) 
N-[(2,4-dimethoxy-3-methylphenyl)methyl]-2-(1H-indol-3-yl)ethanamine; oxalic acid

>  <PUBCHEM_IUPAC_OPENEYE_NAME>  (103) 
N-[(2,4-dimethoxy-3-methyl-phenyl)methyl]-2-(1H-indol-3-yl)ethanamine; oxalic acid

>  <PUBCHEM_IUPAC_SYSTEMATIC_NAME>  (103) 
N-[(2,4-dimethoxy-3-methyl-phenyl)methyl]-2-(1H-indol-3-yl)ethanamine; ethanedioic acid

>  <PUBCHEM_IUPAC_TRADITIONAL_NAME>  (103) 
(2,4-dimethoxy-3-methyl-benzyl)-[2-(1H-indol-3-yl)ethyl]amine; oxalic acid

>  <PUBCHEM_MOLECULAR_FORMULA>  (103) 
C22H26N2O6

>  <PUBCHEM_MOLECULAR_WEIGHT>  (103) 
414.45164

>  <PUBCHEM_MONOISOTOPIC_WEIGHT>  (103) 
414.179087

>  <PUBCHEM_OPENEYE_CAN_SMILES>  (103) 
CC1=C(C=CC(=C1OC)CNCCC2=CNC3=CC=CC=C32)OC.C(=O)(C(=O)O)O

>  <PUBCHEM_OPENEYE_ISO_SMILES>  (103) 
CC1=C(C=CC(=C1OC)CNCCC2=CNC3=CC=CC=C32)OC.C(=O)(C(=O)O)O

>  <PUBCHEM_TOTAL_CHARGE>  (103) 
0

$$$$
Largest isolated from Written by BCL::WriteToMDL,2896543
     RDKit          2D

 46 47  0 46  0  0  0  0  0  0999 V2000
   -3.9329   -2.1515    0.0000 S   0  0  0  0  0  0  0  0  0  0  0  0
    0.1170   -2.6663    0.0000 O   0  0  0  0  0  0  0  0  0  0  0  0
    8.4088    1.3031    0.0000 O   0  0  0  0  0  0  0  0  0  0  0  0
   -0.4594   -0.2319    0.0000 N   0  0  0  0  0  0  0  0  0  0  0  0
    2.4967    0.2797    0.0000 C   0  0  0  0  0  0  0  0  0  0  0  0
    1.0186    0.0239    0.0000 C   0  0  0  0  0  0  0  0  0  0  0  0
   -2.4549   -1.8957    0.0000 C   0  0  0  0  0  0  0  0  0  0  0  0
    3.9747    0.5356    0.0000 C   0  0  0  0  0  0  0  0  0  0  0  0
   -0.9768   -1.6399    0.0000 C   0  0  0  0  0  0  0  0  0  0  0  0
   -4.8934   -0.9994    0.0000 C   0  0  0  0  0  0  0  0  0  0  0  0
   -2.1990   -3.3737    0.0000 C   0  0  0  0  0  0  0  0  0  0  0  0
    4.9353   -0.6165    0.0000 C   0  0  0  0  0  0  0  0  0  0  0  0
    4.4921    1.9435    0.0000 C   0  0  0  0  0  0  0  0  0  0  0  0
   -5.8540    0.1526    0.0000 C   0  0  0  0  0  0  0  0  0  0  0  0
    6.4133   -0.3607    0.0000 C   0  0  0  0  0  0  0  0  0  0  0  0
    5.9702    2.1993    0.0000 C   0  0  0  0  0  0  0  0  0  0  0  0
    6.9307    1.0472    0.0000 C   0  0  0  0  0  0  0  0  0  0  0  0
   -5.3366    1.5606    0.0000 C   0  0  0  0  0  0  0  0  0  0  0  0
   -7.3320   -0.1032    0.0000 C   0  0  0  0  0  0  0  0  0  0  0  0
   -6.2971    2.7127    0.0000 C   0  0  0  0  0  0  0  0  0  0  0  0
   -8.2926    1.0489    0.0000 C   0  0  0  0  0  0  0  0  0  0  0  0
   -7.7752    2.4568    0.0000 C   0  0  0  0  0  0  0  0  0  0  0  0
    9.3693    0.1510    0.0000 C   0  0  0  0  0  0  0  0  0  0  0  0
    2.7525   -1.1983    0.0000 H   0  0  0  0  0  0  0  0  0  0  0  0
    2.2408    1.7578    0.0000 H   0  0  0  0  0  0  0  0  0  0  0  0
    0.7628    1.5019    0.0000 H   0  0  0  0  0  0  0  0  0  0  0  0
    1.2745   -1.4541    0.0000 H   0  0  0  0  0  0  0  0  0  0  0  0
   -2.7107   -0.4177    0.0000 H   0  0  0  0  0  0  0  0  0  0  0  0
   -1.4200    0.9201    0.0000 H   0  0  0  0  0  0  0  0  0  0  0  0
   -6.0455   -1.9600    0.0000 H   0  0  0  0  0  0  0  0  0  0  0  0
   -3.7414   -0.0389    0.0000 H   0  0  0  0  0  0  0  0  0  0  0  0
   -3.6770   -3.6296    0.0000 H   0  0  0  0  0  0  0  0  0  0  0  0
   -0.7008   -3.3000    0.0000 H   0  0  0  0  0  0  0  0  0  0  0  0
   -1.9432   -4.8517    0.0000 H   0  0  0  0  0  0  0  0  0  0  0  0
    4.4178   -2.0244    0.0000 H   0  0  0  0  0  0  0  0  0  0  0  0
    3.5316    3.0956    0.0000 H   0  0  0  0  0  0  0  0  0  0  0  0
    7.3738   -1.5128    0.0000 H   0  0  0  0  0  0  0  0  0  0  0  0
    6.4876    3.6072    0.0000 H   0  0  0  0  0  0  0  0  0  0  0  0
   -3.8585    1.8164    0.0000 H   0  0  0  0  0  0  0  0  0  0  0  0
   -7.8495   -1.5111    0.0000 H   0  0  0  0  0  0  0  0  0  0  0  0
   -5.7797    4.1206    0.0000 H   0  0  0  0  0  0  0  0  0  0  0  0
   -9.7706    0.7931    0.0000 H   0  0  0  0  0  0  0  0  0  0  0  0
   -8.7357    3.6089    0.0000 H   0  0  0  0  0  0  0  0  0  0  0  0
   10.5214    1.1116    0.0000 H   0  0  0  0  0  0  0  0  0  0  0  0
    8.2172   -0.8096    0.0000 H   0  0  0  0  0  0  0  0  0  0  0  0
   10.3299   -1.0011    0.0000 H   0  0  0  0  0  0  0  0  0  0  0  0
  1  7  1  0
  1 10  1  0
  2  9  2  0
  3 17  1  0
  3 23  1  0
  4  6  1  0
  4  9  1  0
  4 29  1  0
  5  6  1  0
  5  8  1  0
  5 24  1  0
  5 25  1  0
  6 26  1  0
  6 27  1  0
  7  9  1  0
  7 11  1  0
  7 28  1  6
  8 12  2  0
  8 13  1  0
 10 14  1  0
 10 30  1  0
 10 31  1  0
 11 32  1  0
 11 33  1  0
 11 34  1  0
 12 15  1  0
 12 35  1  0
 13 16  2  0
 13 36  1  0
 14 18  2  0
 14 19  1  0
 15 17  2  0
 15 37  1  0
 16 17  1  0
 16 38  1  0
 18 20  1  0
 18 39  1  0
 19 21  2  0
 19 40  1  0
 20 22  2  0
 20 41  1  0
 21 22  1  0
 21 42  1  0
 22 43  1  0
 23 44  1  0
 23 45  1  0
 23 46  1  0
M  STY  8   1 DAT   2 DAT   3 DAT   4 DAT   5 DAT   6 DAT   7 DAT   8 DAT
M  STY  8   9 DAT  10 DAT  11 DAT  12 DAT  13 DAT  14 DAT  15 DAT  16 DAT
M  STY  8  17 DAT  18 DAT  19 DAT  20 DAT  21 DAT  22 DAT  23 DAT  24 DAT
M  STY  8  25 DAT  26 DAT  27 DAT  28 DAT  29 DAT  30 DAT  31 DAT  32 DAT
M  STY  8  33 DAT  34 DAT  35 DAT  36 DAT  37 DAT  38 DAT  39 DAT  40 DAT
M  STY  6  41 DAT  42 DAT  43 DAT  44 DAT  45 DAT  46 DAT
M  SAL   1  1   1
M  SED   1 [#16&h0]
M  SAL   2  1   2
M  SED   2 [#8&h0]
M  SAL   3  1   3
M  SED   3 [#8&h0]
M  SAL   4  1   4
M  SED   4 [#7&h0]
M  SAL   5  1   5
M  SED   5 [#6&h0]
M  SAL   6  1   6
M  SED   6 [#6&h0]
M  SAL   7  1   7
M  SED   7 [#6&h0]
M  SAL   8  1   8
M  SED   8 [#6&h0]
M  SAL   9  1   9
M  SED   9 [#6&h0]
M  SAL  10  1  10
M  SED  10 [#6&h0]
M  SAL  11  1  11
M  SED  11 [#6&h0]
M  SAL  12  1  12
M  SED  12 [#6&h0]
M  SAL  13  1  13
M  SED  13 [#6&h0]
M  SAL  14  1  14
M  SED  14 [#6&h0]
M  SAL  15  1  15
M  SED  15 [#6&h0]
M  SAL  16  1  16
M  SED  16 [#6&h0]
M  SAL  17  1  17
M  SED  17 [#6&h0]
M  SAL  18  1  18
M  SED  18 [#6&h0]
M  SAL  19  1  19
M  SED  19 [#6&h0]
M  SAL  20  1  20
M  SED  20 [#6&h0]
M  SAL  21  1  21
M  SED  21 [#6&h0]
M  SAL  22  1  22
M  SED  22 [#6&h0]
M  SAL  23  1  23
M  SED  23 [#6&h0]
M  SAL  24  1  24
M  SED  24 [#1&h0]
M  SAL  25  1  25
M  SED  25 [#1&h0]
M  SAL  26  1  26
M  SED  26 [#1&h0]
M  SAL  27  1  27
M  SED  27 [#1&h0]
M  SAL  28  1  28
M  SED  28 [#1&h0]
M  SAL  29  1  29
M  SED  29 [#1&h0]
M  SAL  30  1  30
M  SED  30 [#1&h0]
M  SAL  31  1  31
M  SED  31 [#1&h0]
M  SAL  32  1  32
M  SED  32 [#1&h0]
M  SAL  33  1  33
M  SED  33 [#1&h0]
M  SAL  34  1  34
M  SED  34 [#1&h0]
M  SAL  35  1  35
M  SED  35 [#1&h0]
M  SAL  36  1  36
M  SED  36 [#1&h0]
M  SAL  37  1  37
M  SED  37 [#1&h0]
M  SAL  38  1  38
M  SED  38 [#1&h0]
M  SAL  39  1  39
M  SED  39 [#1&h0]
M  SAL  40  1  40
M  SED  40 [#1&h0]
M  SAL  41  1  41
M  SED  41 [#1&h0]
M  SAL  42  1  42
M  SED  42 [#1&h0]
M  SAL  43  1  43
M  SED  43 [#1&h0]
M  SAL  44  1  44
M  SED  44 [#1&h0]
M  SAL  45  1  45
M  SED  45 [#1&h0]
M  SAL  46  1  46
M  SED  46 [#1&h0]
M  END
>  <Activity>  (104) 
0.01

>  <Mapped(file=2032.csv.activities,property=Cached(PUBCHEM_COMPOUND_CID))>  (104) 
100

>  <MatchIndices>  (104) 
39 

>  <PUBCHEM_ATOM_DEF_STEREO_COUNT>  (104) 
0

>  <PUBCHEM_ATOM_UDEF_STEREO_COUNT>  (104) 
1

>  <PUBCHEM_BONDANNOTATIONS>  (104) 
12  15  8
13  16  8
14  18  8
14  19  8
15  17  8
16  17  8
18  20  8
19  21  8
20  22  8
21  22  8
7  28  3
8  12  8
8  13  8

>  <PUBCHEM_BOND_DEF_STEREO_COUNT>  (104) 
0

>  <PUBCHEM_BOND_UDEF_STEREO_COUNT>  (104) 
0

>  <PUBCHEM_CACTVS_COMPLEXITY>  (104) 
336

>  <PUBCHEM_CACTVS_HBOND_ACCEPTOR>  (104) 
3

>  <PUBCHEM_CACTVS_HBOND_DONOR>  (104) 
1

>  <PUBCHEM_CACTVS_ROTATABLE_BOND>  (104) 
8

>  <PUBCHEM_CACTVS_SUBSKEYS>  (104) 
AAADceB6MABAAAAAAAAAAAAAAAAAAAAAAAAwYAAAAAAAAAABQAAAHgQQAAAADATF2AayBoLABAiIAiFSEAACCAAgIBAIiIEOCIgMJiKksRuEMCAk1hGoqAeQwIAOIAAAAAAAAABAAAAAAAAAAAAAAAAAAA==

>  <PUBCHEM_CACTVS_TAUTO_COUNT>  (104) 
2

>  <PUBCHEM_CACTVS_TPSA>  (104) 
63.6

>  <PUBCHEM_COMPONENT_COUNT>  (104) 
1

>  <PUBCHEM_COMPOUND_CANONICALIZED>  (104) 
1

>  <PUBCHEM_COMPOUND_CID>  (104) 
2896543

>  <PUBCHEM_COORDINATE_TYPE>  (104) 
1
5
255

>  <PUBCHEM_EXACT_MASS>  (104) 
329.14495

>  <PUBCHEM_HEAVY_ATOM_COUNT>  (104) 
23

>  <PUBCHEM_ISOTOPIC_ATOM_COUNT>  (104) 
0

>  <PUBCHEM_IUPAC_CAS_NAME>  (104) 
N-[2-(4-methoxyphenyl)ethyl]-2-(phenylmethylthio)propanamide

>  <PUBCHEM_IUPAC_INCHI>  (104) 
InChI=1S/C19H23NO2S/c1-15(23-14-17-6-4-3-5-7-17)19(21)20-13-12-16-8-10-18(22-2)11-9-16/h3-11,15H,12-14H2,1-2H3,(H,20,21)

>  <PUBCHEM_IUPAC_INCHIKEY>  (104) 
DIJOPJPJNZSEIX-UHFFFAOYSA-N

>  <PUBCHEM_IUPAC_NAME>  (104) 
2-benzylsulfanyl-N-[2-(4-methoxyphenyl)ethyl]propanamide

>  <PUBCHEM_IUPAC_OPENEYE_NAME>  (104) 
2-benzylsulfanyl-N-[2-(4-methoxyphenyl)ethyl]propanamide

>  <PUBCHEM_IUPAC_SYSTEMATIC_NAME>  (104) 
N-[2-(4-methoxyphenyl)ethyl]-2-(phenylmethylsulfanyl)propanamide

>  <PUBCHEM_IUPAC_TRADITIONAL_NAME>  (104) 
2-(benzylthio)-N-[2-(4-methoxyphenyl)ethyl]propionamide

>  <PUBCHEM_MOLECULAR_FORMULA>  (104) 
C19H23NO2S

>  <PUBCHEM_MOLECULAR_WEIGHT>  (104) 
329.45642

>  <PUBCHEM_MONOISOTOPIC_WEIGHT>  (104) 
329.14495

>  <PUBCHEM_OPENEYE_CAN_SMILES>  (104) 
CC(C(=O)NCCC1=CC=C(C=C1)OC)SCC2=CC=CC=C2

>  <PUBCHEM_OPENEYE_ISO_SMILES>  (104) 
CC(C(=O)NCCC1=CC=C(C=C1)OC)SCC2=CC=CC=C2

>  <PUBCHEM_TOTAL_CHARGE>  (104) 
0

>  <PUBCHEM_XLOGP3_AA>  (104) 
4

$$$$
Largest isolated from Written by BCL::WriteToMDL,2969907
     RDKit          2D

 40 41  0 40  0  0  0  0  0  0999 V2000
    2.1503    4.6897    0.0000 Cl  0  0  0  0  0  0  0  0  0  0  0  0
   -5.1091   -2.8965    0.0000 F   0  0  0  0  0  0  0  0  0  0  0  0
    3.8304   -1.0702    0.0000 O   0  0  0  0  0  0  0  0  0  0  0  0
   -0.1208   -1.4415    0.0000 N   0  0  0  0  0  0  0  0  0  0  0  0
   -1.5779   -1.0852    0.0000 C   0  0  0  0  0  0  0  0  0  0  0  0
   -3.0350   -0.7290    0.0000 C   0  0  0  0  0  0  0  0  0  0  0  0
    0.9163   -0.3577    0.0000 C   0  0  0  0  0  0  0  0  0  0  0  0
    1.9533    0.7260    0.0000 C   0  0  0  0  0  0  0  0  0  0  0  0
   -4.4921   -0.3727    0.0000 C   0  0  0  0  0  0  0  0  0  0  0  0
    3.4104    0.3697    0.0000 C   0  0  0  0  0  0  0  0  0  0  0  0
    1.5333    2.1660    0.0000 C   0  0  0  0  0  0  0  0  0  0  0  0
   -5.5291   -1.4565    0.0000 C   0  0  0  0  0  0  0  0  0  0  0  0
   -4.9121    1.0672    0.0000 C   0  0  0  0  0  0  0  0  0  0  0  0
    4.4475    1.4535    0.0000 C   0  0  0  0  0  0  0  0  0  0  0  0
    2.5704    3.2497    0.0000 C   0  0  0  0  0  0  0  0  0  0  0  0
    4.0274    2.8935    0.0000 C   0  0  0  0  0  0  0  0  0  0  0  0
   -6.9862   -1.1002    0.0000 C   0  0  0  0  0  0  0  0  0  0  0  0
   -6.3692    1.4235    0.0000 C   0  0  0  0  0  0  0  0  0  0  0  0
    5.2875   -1.4265    0.0000 C   0  0  0  0  0  0  0  0  0  0  0  0
   -7.4062    0.3398    0.0000 C   0  0  0  0  0  0  0  0  0  0  0  0
    6.7446   -1.7827    0.0000 C   0  0  0  0  0  0  0  0  0  0  0  0
   -1.9341   -2.5423    0.0000 H   0  0  0  0  0  0  0  0  0  0  0  0
   -1.2216    0.3718    0.0000 H   0  0  0  0  0  0  0  0  0  0  0  0
   -3.3912   -2.1861    0.0000 H   0  0  0  0  0  0  0  0  0  0  0  0
   -2.6787    0.7281    0.0000 H   0  0  0  0  0  0  0  0  0  0  0  0
   -0.1675    0.6793    0.0000 H   0  0  0  0  0  0  0  0  0  0  0  0
    2.0000   -1.3948    0.0000 H   0  0  0  0  0  0  0  0  0  0  0  0
    0.2992   -2.8815    0.0000 H   0  0  0  0  0  0  0  0  0  0  0  0
    0.0762    2.5222    0.0000 H   0  0  0  0  0  0  0  0  0  0  0  0
   -3.8750    2.1510    0.0000 H   0  0  0  0  0  0  0  0  0  0  0  0
    5.9045    1.0972    0.0000 H   0  0  0  0  0  0  0  0  0  0  0  0
    5.0645    3.9772    0.0000 H   0  0  0  0  0  0  0  0  0  0  0  0
   -8.0233   -2.1840    0.0000 H   0  0  0  0  0  0  0  0  0  0  0  0
   -6.7892    2.8635    0.0000 H   0  0  0  0  0  0  0  0  0  0  0  0
    5.6437    0.0306    0.0000 H   0  0  0  0  0  0  0  0  0  0  0  0
    4.9312   -2.8836    0.0000 H   0  0  0  0  0  0  0  0  0  0  0  0
   -8.8633    0.6960    0.0000 H   0  0  0  0  0  0  0  0  0  0  0  0
    7.1008   -0.3257    0.0000 H   0  0  0  0  0  0  0  0  0  0  0  0
    6.3883   -3.2398    0.0000 H   0  0  0  0  0  0  0  0  0  0  0  0
    8.2017   -2.1390    0.0000 H   0  0  0  0  0  0  0  0  0  0  0  0
  1 15  1  0
  2 12  1  0
  3 10  1  0
  3 19  1  0
  4  5  1  0
  4  7  1  0
  4 28  1  0
  5  6  1  0
  5 22  1  0
  5 23  1  0
  6  9  1  0
  6 24  1  0
  6 25  1  0
  7  8  1  0
  7 26  1  0
  7 27  1  0
  8 10  2  0
  8 11  1  0
  9 12  2  0
  9 13  1  0
 10 14  1  0
 11 15  2  0
 11 29  1  0
 12 17  1  0
 13 18  2  0
 13 30  1  0
 14 16  2  0
 14 31  1  0
 15 16  1  0
 16 32  1  0
 17 20  2  0
 17 33  1  0
 18 20  1  0
 18 34  1  0
 19 21  1  0
 19 35  1  0
 19 36  1  0
 20 37  1  0
 21 38  1  0
 21 39  1  0
 21 40  1  0
M  STY  8   1 DAT   2 DAT   3 DAT   4 DAT   5 DAT   6 DAT   7 DAT   8 DAT
M  STY  8   9 DAT  10 DAT  11 DAT  12 DAT  13 DAT  14 DAT  15 DAT  16 DAT
M  STY  8  17 DAT  18 DAT  19 DAT  20 DAT  21 DAT  22 DAT  23 DAT  24 DAT
M  STY  8  25 DAT  26 DAT  27 DAT  28 DAT  29 DAT  30 DAT  31 DAT  32 DAT
M  STY  8  33 DAT  34 DAT  35 DAT  36 DAT  37 DAT  38 DAT  39 DAT  40 DAT
M  SAL   1  1   1
M  SED   1 [#17&h0]
M  SAL   2  1   2
M  SED   2 [#9&h0]
M  SAL   3  1   3
M  SED   3 [#8&h0]
M  SAL   4  1   4
M  SED   4 [#7&h0]
M  SAL   5  1   5
M  SED   5 [#6&h0]
M  SAL   6  1   6
M  SED   6 [#6&h0]
M  SAL   7  1   7
M  SED   7 [#6&h0]
M  SAL   8  1   8
M  SED   8 [#6&h0]
M  SAL   9  1   9
M  SED   9 [#6&h0]
M  SAL  10  1  10
M  SED  10 [#6&h0]
M  SAL  11  1  11
M  SED  11 [#6&h0]
M  SAL  12  1  12
M  SED  12 [#6&h0]
M  SAL  13  1  13
M  SED  13 [#6&h0]
M  SAL  14  1  14
M  SED  14 [#6&h0]
M  SAL  15  1  15
M  SED  15 [#6&h0]
M  SAL  16  1  16
M  SED  16 [#6&h0]
M  SAL  17  1  17
M  SED  17 [#6&h0]
M  SAL  18  1  18
M  SED  18 [#6&h0]
M  SAL  19  1  19
M  SED  19 [#6&h0]
M  SAL  20  1  20
M  SED  20 [#6&h0]
M  SAL  21  1  21
M  SED  21 [#6&h0]
M  SAL  22  1  22
M  SED  22 [#1&h0]
M  SAL  23  1  23
M  SED  23 [#1&h0]
M  SAL  24  1  24
M  SED  24 [#1&h0]
M  SAL  25  1  25
M  SED  25 [#1&h0]
M  SAL  26  1  26
M  SED  26 [#1&h0]
M  SAL  27  1  27
M  SED  27 [#1&h0]
M  SAL  28  1  28
M  SED  28 [#1&h0]
M  SAL  29  1  29
M  SED  29 [#1&h0]
M  SAL  30  1  30
M  SED  30 [#1&h0]
M  SAL  31  1  31
M  SED  31 [#1&h0]
M  SAL  32  1  32
M  SED  32 [#1&h0]
M  SAL  33  1  33
M  SED  33 [#1&h0]
M  SAL  34  1  34
M  SED  34 [#1&h0]
M  SAL  35  1  35
M  SED  35 [#1&h0]
M  SAL  36  1  36
M  SED  36 [#1&h0]
M  SAL  37  1  37
M  SED  37 [#1&h0]
M  SAL  38  1  38
M  SED  38 [#1&h0]
M  SAL  39  1  39
M  SED  39 [#1&h0]
M  SAL  40  1  40
M  SED  40 [#1&h0]
M  END
>  <Activity>  (105) 
0.01

>  <Mapped(file=2032.csv.activities,property=Cached(PUBCHEM_COMPOUND_CID))>  (105) 
100

>  <MatchIndices>  (105) 
52 

>  <PUBCHEM_ATOM_DEF_STEREO_COUNT>  (105) 
0

>  <PUBCHEM_ATOM_UDEF_STEREO_COUNT>  (105) 
0

>  <PUBCHEM_BONDANNOTATIONS>  (105) 
10  13  8
10  14  8
11  15  8
12  16  8
13  18  8
14  19  8
15  17  8
16  17  8
18  21  8
19  21  8
9  11  8
9  12  8

>  <PUBCHEM_BOND_DEF_STEREO_COUNT>  (105) 
0

>  <PUBCHEM_BOND_UDEF_STEREO_COUNT>  (105) 
0

>  <PUBCHEM_CACTVS_COMPLEXITY>  (105) 
292

>  <PUBCHEM_CACTVS_HBOND_ACCEPTOR>  (105) 
3

>  <PUBCHEM_CACTVS_HBOND_DONOR>  (105) 
2

>  <PUBCHEM_CACTVS_ROTATABLE_BOND>  (105) 
7

>  <PUBCHEM_CACTVS_SUBSKEYS>  (105) 
AAADceB6IQAGAAAAAAAAAAAAAAAAAAAAAAAwYAAAAAAAAAABQAAAHwIQAAAADAbhmC4yBoLABACAAiBCAACCCAAgJQAIiIAODogMJiKFsxuGOCjm0BGIqAeQwKAOACAAIAAIAAAAQABAABAAAAAAAAAAAA==

>  <PUBCHEM_CACTVS_TAUTO_COUNT>  (105) 
1

>  <PUBCHEM_CACTVS_TPSA>  (105) 
21.3

>  <PUBCHEM_COMPONENT_COUNT>  (105) 
2

>  <PUBCHEM_COMPOUND_CANONICALIZED>  (105) 
1

>  <PUBCHEM_COMPOUND_CID>  (105) 
2969907

>  <PUBCHEM_COORDINATE_TYPE>  (105) 
1
5
255

>  <PUBCHEM_EXACT_MASS>  (105) 
343.090598

>  <PUBCHEM_HEAVY_ATOM_COUNT>  (105) 
22

>  <PUBCHEM_ISOTOPIC_ATOM_COUNT>  (105) 
0

>  <PUBCHEM_IUPAC_CAS_NAME>  (105) 
N-[(5-chloro-2-ethoxyphenyl)methyl]-2-(2-fluorophenyl)ethanamine hydrochloride

>  <PUBCHEM_IUPAC_INCHI>  (105) 
InChI=1S/C17H19ClFNO.ClH/c1-2-21-17-8-7-15(18)11-14(17)12-20-10-9-13-5-3-4-6-16(13)19;/h3-8,11,20H,2,9-10,12H2,1H3;1H

>  <PUBCHEM_IUPAC_INCHIKEY>  (105) 
PCEUIGBKNNRKIM-UHFFFAOYSA-N

>  <PUBCHEM_IUPAC_NAME>  (105) 
N-[(5-chloro-2-ethoxyphenyl)methyl]-2-(2-fluorophenyl)ethanamine hydrochloride

>  <PUBCHEM_IUPAC_OPENEYE_NAME>  (105) 
N-[(5-chloro-2-ethoxy-phenyl)methyl]-2-(2-fluorophenyl)ethanamine hydrochloride

>  <PUBCHEM_IUPAC_SYSTEMATIC_NAME>  (105) 
N-[(5-chloranyl-2-ethoxy-phenyl)methyl]-2-(2-fluorophenyl)ethanamine hydrochloride

>  <PUBCHEM_IUPAC_TRADITIONAL_NAME>  (105) 
(5-chloro-2-ethoxy-benzyl)-[2-(2-fluorophenyl)ethyl]amine hydrochloride

>  <PUBCHEM_MOLECULAR_FORMULA>  (105) 
C17H20Cl2FNO

>  <PUBCHEM_MOLECULAR_WEIGHT>  (105) 
344.251203

>  <PUBCHEM_MONOISOTOPIC_WEIGHT>  (105) 
343.090598

>  <PUBCHEM_OPENEYE_CAN_SMILES>  (105) 
CCOC1=C(C=C(C=C1)Cl)CNCCC2=CC=CC=C2F.Cl

>  <PUBCHEM_OPENEYE_ISO_SMILES>  (105) 
CCOC1=C(C=C(C=C1)Cl)CNCCC2=CC=CC=C2F.Cl

>  <PUBCHEM_TOTAL_CHARGE>  (105) 
0

$$$$
Largest isolated from Written by BCL::WriteToMDL,2934526
     RDKit          2D

 41 42  0 41  0  0  0  0  0  0999 V2000
   -4.6679    1.6741    0.0000 Cl  0  0  0  0  0  0  0  0  0  0  0  0
   -7.4139   -2.7372    0.0000 Cl  0  0  0  0  0  0  0  0  0  0  0  0
   -0.7978    0.7952    0.0000 O   0  0  0  0  0  0  0  0  0  0  0  0
   -4.7675   -1.3242    0.0000 O   0  0  0  0  0  0  0  0  0  0  0  0
    3.0225   -1.5829    0.0000 N   0  0  0  0  0  0  0  0  0  0  0  0
    1.7490   -0.7902    0.0000 C   0  0  0  0  0  0  0  0  0  0  0  0
    4.3457   -0.8764    0.0000 C   0  0  0  0  0  0  0  0  0  0  0  0
    0.4756    0.0025    0.0000 C   0  0  0  0  0  0  0  0  0  0  0  0
    5.6689   -0.1699    0.0000 C   0  0  0  0  0  0  0  0  0  0  0  0
   -2.1210    0.0887    0.0000 C   0  0  0  0  0  0  0  0  0  0  0  0
   -3.4443   -0.6177    0.0000 C   0  0  0  0  0  0  0  0  0  0  0  0
    6.9423   -0.9626    0.0000 C   0  0  0  0  0  0  0  0  0  0  0  0
    5.7187    1.3292    0.0000 C   0  0  0  0  0  0  0  0  0  0  0  0
    8.2655   -0.2562    0.0000 C   0  0  0  0  0  0  0  0  0  0  0  0
    7.0419    2.0357    0.0000 C   0  0  0  0  0  0  0  0  0  0  0  0
    8.3153    1.2430    0.0000 C   0  0  0  0  0  0  0  0  0  0  0  0
   -6.0409   -0.5315    0.0000 C   0  0  0  0  0  0  0  0  0  0  0  0
   -5.9911    0.9677    0.0000 C   0  0  0  0  0  0  0  0  0  0  0  0
   -7.3641   -1.2380    0.0000 C   0  0  0  0  0  0  0  0  0  0  0  0
   -7.2645    1.7604    0.0000 C   0  0  0  0  0  0  0  0  0  0  0  0
   -8.6375   -0.4453    0.0000 C   0  0  0  0  0  0  0  0  0  0  0  0
   -8.5878    1.0539    0.0000 C   0  0  0  0  0  0  0  0  0  0  0  0
    0.9563   -2.0636    0.0000 H   0  0  0  0  0  0  0  0  0  0  0  0
    2.5417    0.4832    0.0000 H   0  0  0  0  0  0  0  0  0  0  0  0
    5.0522   -2.1996    0.0000 H   0  0  0  0  0  0  0  0  0  0  0  0
    3.6392    0.4468    0.0000 H   0  0  0  0  0  0  0  0  0  0  0  0
   -0.3171   -1.2709    0.0000 H   0  0  0  0  0  0  0  0  0  0  0  0
    1.2683    1.2759    0.0000 H   0  0  0  0  0  0  0  0  0  0  0  0
    2.9727   -3.0821    0.0000 H   0  0  0  0  0  0  0  0  0  0  0  0
   -2.8275    1.4119    0.0000 H   0  0  0  0  0  0  0  0  0  0  0  0
   -1.4146   -1.2345    0.0000 H   0  0  0  0  0  0  0  0  0  0  0  0
   -4.1507    0.7055    0.0000 H   0  0  0  0  0  0  0  0  0  0  0  0
   -2.7378   -1.9410    0.0000 H   0  0  0  0  0  0  0  0  0  0  0  0
    6.8925   -2.4618    0.0000 H   0  0  0  0  0  0  0  0  0  0  0  0
    4.4452    2.1219    0.0000 H   0  0  0  0  0  0  0  0  0  0  0  0
    9.5390   -1.0489    0.0000 H   0  0  0  0  0  0  0  0  0  0  0  0
    7.0917    3.5349    0.0000 H   0  0  0  0  0  0  0  0  0  0  0  0
    9.6385    1.9495    0.0000 H   0  0  0  0  0  0  0  0  0  0  0  0
   -7.2148    3.2595    0.0000 H   0  0  0  0  0  0  0  0  0  0  0  0
   -9.9608   -1.1518    0.0000 H   0  0  0  0  0  0  0  0  0  0  0  0
   -9.8612    1.8466    0.0000 H   0  0  0  0  0  0  0  0  0  0  0  0
  1 18  1  0
  2 19  1  0
  3  8  1  0
  3 10  1  0
  4 11  1  0
  4 17  1  0
  5  6  1  0
  5  7  1  0
  5 29  1  0
  6  8  1  0
  6 23  1  0
  6 24  1  0
  7  9  1  0
  7 25  1  0
  7 26  1  0
  8 27  1  0
  8 28  1  0
  9 12  2  0
  9 13  1  0
 10 11  1  0
 10 30  1  0
 10 31  1  0
 11 32  1  0
 11 33  1  0
 12 14  1  0
 12 34  1  0
 13 15  2  0
 13 35  1  0
 14 16  2  0
 14 36  1  0
 15 16  1  0
 15 37  1  0
 16 38  1  0
 17 18  2  0
 17 19  1  0
 18 20  1  0
 19 21  2  0
 20 22  2  0
 20 39  1  0
 21 22  1  0
 21 40  1  0
 22 41  1  0
M  STY  8   1 DAT   2 DAT   3 DAT   4 DAT   5 DAT   6 DAT   7 DAT   8 DAT
M  STY  8   9 DAT  10 DAT  11 DAT  12 DAT  13 DAT  14 DAT  15 DAT  16 DAT
M  STY  8  17 DAT  18 DAT  19 DAT  20 DAT  21 DAT  22 DAT  23 DAT  24 DAT
M  STY  8  25 DAT  26 DAT  27 DAT  28 DAT  29 DAT  30 DAT  31 DAT  32 DAT
M  STY  8  33 DAT  34 DAT  35 DAT  36 DAT  37 DAT  38 DAT  39 DAT  40 DAT
M  STY  1  41 DAT
M  SAL   1  1   1
M  SED   1 [#17&h0]
M  SAL   2  1   2
M  SED   2 [#17&h0]
M  SAL   3  1   3
M  SED   3 [#8&h0]
M  SAL   4  1   4
M  SED   4 [#8&h0]
M  SAL   5  1   5
M  SED   5 [#7&h0]
M  SAL   6  1   6
M  SED   6 [#6&h0]
M  SAL   7  1   7
M  SED   7 [#6&h0]
M  SAL   8  1   8
M  SED   8 [#6&h0]
M  SAL   9  1   9
M  SED   9 [#6&h0]
M  SAL  10  1  10
M  SED  10 [#6&h0]
M  SAL  11  1  11
M  SED  11 [#6&h0]
M  SAL  12  1  12
M  SED  12 [#6&h0]
M  SAL  13  1  13
M  SED  13 [#6&h0]
M  SAL  14  1  14
M  SED  14 [#6&h0]
M  SAL  15  1  15
M  SED  15 [#6&h0]
M  SAL  16  1  16
M  SED  16 [#6&h0]
M  SAL  17  1  17
M  SED  17 [#6&h0]
M  SAL  18  1  18
M  SED  18 [#6&h0]
M  SAL  19  1  19
M  SED  19 [#6&h0]
M  SAL  20  1  20
M  SED  20 [#6&h0]
M  SAL  21  1  21
M  SED  21 [#6&h0]
M  SAL  22  1  22
M  SED  22 [#6&h0]
M  SAL  23  1  23
M  SED  23 [#1&h0]
M  SAL  24  1  24
M  SED  24 [#1&h0]
M  SAL  25  1  25
M  SED  25 [#1&h0]
M  SAL  26  1  26
M  SED  26 [#1&h0]
M  SAL  27  1  27
M  SED  27 [#1&h0]
M  SAL  28  1  28
M  SED  28 [#1&h0]
M  SAL  29  1  29
M  SED  29 [#1&h0]
M  SAL  30  1  30
M  SED  30 [#1&h0]
M  SAL  31  1  31
M  SED  31 [#1&h0]
M  SAL  32  1  32
M  SED  32 [#1&h0]
M  SAL  33  1  33
M  SED  33 [#1&h0]
M  SAL  34  1  34
M  SED  34 [#1&h0]
M  SAL  35  1  35
M  SED  35 [#1&h0]
M  SAL  36  1  36
M  SED  36 [#1&h0]
M  SAL  37  1  37
M  SED  37 [#1&h0]
M  SAL  38  1  38
M  SED  38 [#1&h0]
M  SAL  39  1  39
M  SED  39 [#1&h0]
M  SAL  40  1  40
M  SED  40 [#1&h0]
M  SAL  41  1  41
M  SED  41 [#1&h0]
M  END
>  <Activity>  (106) 
0.01

>  <Mapped(file=2032.csv.activities,property=Cached(PUBCHEM_COMPOUND_CID))>  (106) 
100

>  <MatchIndices>  (106) 
18 

>  <PUBCHEM_ATOM_DEF_STEREO_COUNT>  (106) 
0

>  <PUBCHEM_ATOM_UDEF_STEREO_COUNT>  (106) 
0

>  <PUBCHEM_BONDANNOTATIONS>  (106) 
13  16  8
13  17  8
16  18  8
17  19  8
18  20  8
19  20  8
21  22  8
21  23  8
22  24  8
23  25  8
24  26  8
25  26  8

>  <PUBCHEM_BOND_DEF_STEREO_COUNT>  (106) 
0

>  <PUBCHEM_BOND_UDEF_STEREO_COUNT>  (106) 
0

>  <PUBCHEM_CACTVS_COMPLEXITY>  (106) 
349

>  <PUBCHEM_CACTVS_HBOND_ACCEPTOR>  (106) 
7

>  <PUBCHEM_CACTVS_HBOND_DONOR>  (106) 
3

>  <PUBCHEM_CACTVS_ROTATABLE_BOND>  (106) 
10

>  <PUBCHEM_CACTVS_SUBSKEYS>  (106) 
AAADceB6OAAGAAAAAAAAAAAAAAAAAAAAAAAwYAAAAAAAAAABQAAAHgIQCAAADAbhmCYwDoLABgCIAiDSCAKCCAAgJUAIiIBMD4gPJiOFsxuHOCjk0BGbqAeQwAAOAAAAAACACAAAAAAAAQAQAAAAAAAAAA==

>  <PUBCHEM_CACTVS_TAUTO_COUNT>  (106) 
1

>  <PUBCHEM_CACTVS_TPSA>  (106) 
105

>  <PUBCHEM_COMPONENT_COUNT>  (106) 
2

>  <PUBCHEM_COMPOUND_CANONICALIZED>  (106) 
1

>  <PUBCHEM_COMPOUND_CID>  (106) 
2934526

>  <PUBCHEM_COORDINATE_TYPE>  (106) 
1
5
255

>  <PUBCHEM_EXACT_MASS>  (106) 
429.074593

>  <PUBCHEM_HEAVY_ATOM_COUNT>  (106) 
28

>  <PUBCHEM_ISOTOPIC_ATOM_COUNT>  (106) 
0

>  <PUBCHEM_IUPAC_CAS_NAME>  (106) 
2-[2-(2,6-dichlorophenoxy)ethoxy]-N-(phenylmethyl)ethanamine; oxalic acid

>  <PUBCHEM_IUPAC_INCHI>  (106) 
InChI=1S/C17H19Cl2NO2.C2H2O4/c18-15-7-4-8-16(19)17(15)22-12-11-21-10-9-20-13-14-5-2-1-3-6-14;3-1(4)2(5)6/h1-8,20H,9-13H2;(H,3,4)(H,5,6)

>  <PUBCHEM_IUPAC_INCHIKEY>  (106) 
MVINPAUTMDZABP-UHFFFAOYSA-N

>  <PUBCHEM_IUPAC_NAME>  (106) 
N-benzyl-2-[2-(2,6-dichlorophenoxy)ethoxy]ethanamine; oxalic acid

>  <PUBCHEM_IUPAC_OPENEYE_NAME>  (106) 
N-benzyl-2-[2-(2,6-dichlorophenoxy)ethoxy]ethanamine; oxalic acid

>  <PUBCHEM_IUPAC_SYSTEMATIC_NAME>  (106) 
2-[2-[2,6-bis(chloranyl)phenoxy]ethoxy]-N-(phenylmethyl)ethanamine; ethanedioic acid

>  <PUBCHEM_IUPAC_TRADITIONAL_NAME>  (106) 
benzyl-[2-[2-(2,6-dichlorophenoxy)ethoxy]ethyl]amine; oxalic acid

>  <PUBCHEM_MOLECULAR_FORMULA>  (106) 
C19H21Cl2NO6

>  <PUBCHEM_MOLECULAR_WEIGHT>  (106) 
430.27914

>  <PUBCHEM_MONOISOTOPIC_WEIGHT>  (106) 
429.074593

>  <PUBCHEM_OPENEYE_CAN_SMILES>  (106) 
C1=CC=C(C=C1)CNCCOCCOC2=C(C=CC=C2Cl)Cl.C(=O)(C(=O)O)O

>  <PUBCHEM_OPENEYE_ISO_SMILES>  (106) 
C1=CC=C(C=C1)CNCCOCCOC2=C(C=CC=C2Cl)Cl.C(=O)(C(=O)O)O

>  <PUBCHEM_TOTAL_CHARGE>  (106) 
0

$$$$
Largest isolated from Written by BCL::WriteToMDL,24684626
     RDKit          2D

 39 41  0 39  0  0  0  0  0  0999 V2000
   -8.2480   -1.5680    0.0000 Cl  0  0  0  0  0  0  0  0  0  0  0  0
    0.9595   -0.7012    0.0000 O   0  0  0  0  0  0  0  0  0  0  0  0
    0.1945    1.5503    0.0000 N   0  0  0  0  0  0  0  0  0  0  0  0
    2.7552    1.1113    0.0000 C   0  0  0  0  0  0  0  0  0  0  0  0
    2.4877    2.5873    0.0000 C   0  0  0  0  0  0  0  0  0  0  0  0
    3.8997    2.0810    0.0000 C   0  0  0  0  0  0  0  0  0  0  0  0
    3.5114   -0.1841    0.0000 C   0  0  0  0  0  0  0  0  0  0  0  0
    1.3481    0.5916    0.0000 C   0  0  0  0  0  0  0  0  0  0  0  0
    2.7675   -1.4867    0.0000 C   0  0  0  0  0  0  0  0  0  0  0  0
    5.0114   -0.1770    0.0000 C   0  0  0  0  0  0  0  0  0  0  0  0
   -1.2126    1.0306    0.0000 C   0  0  0  0  0  0  0  0  0  0  0  0
    3.5237   -2.7822    0.0000 C   0  0  0  0  0  0  0  0  0  0  0  0
    5.7675   -1.4725    0.0000 C   0  0  0  0  0  0  0  0  0  0  0  0
   -2.6197    0.5109    0.0000 C   0  0  0  0  0  0  0  0  0  0  0  0
    5.0237   -2.7750    0.0000 C   0  0  0  0  0  0  0  0  0  0  0  0
   -4.0268   -0.0088    0.0000 C   0  0  0  0  0  0  0  0  0  0  0  0
   -4.2802   -1.4872    0.0000 C   0  0  0  0  0  0  0  0  0  0  0  0
   -5.1804    0.9499    0.0000 C   0  0  0  0  0  0  0  0  0  0  0  0
   -5.6873   -2.0070    0.0000 C   0  0  0  0  0  0  0  0  0  0  0  0
   -6.5875    0.4302    0.0000 C   0  0  0  0  0  0  0  0  0  0  0  0
   -6.8409   -1.0482    0.0000 C   0  0  0  0  0  0  0  0  0  0  0  0
    4.6435    3.3836    0.0000 H   0  0  0  0  0  0  0  0  0  0  0  0
    4.9218    1.4241    0.0000 H   0  0  0  0  0  0  0  0  0  0  0  0
    1.2811    2.7297    0.0000 H   0  0  0  0  0  0  0  0  0  0  0  0
    2.7412    4.0657    0.0000 H   0  0  0  0  0  0  0  0  0  0  0  0
    0.2523    2.7640    0.0000 H   0  0  0  0  0  0  0  0  0  0  0  0
    1.4284   -1.6576    0.0000 H   0  0  0  0  0  0  0  0  0  0  0  0
    5.7380    0.7968    0.0000 H   0  0  0  0  0  0  0  0  0  0  0  0
   -1.7323    2.4377    0.0000 H   0  0  0  0  0  0  0  0  0  0  0  0
   -0.6929   -0.3765    0.0000 H   0  0  0  0  0  0  0  0  0  0  0  0
    2.7799   -4.0847    0.0000 H   0  0  0  0  0  0  0  0  0  0  0  0
    7.2675   -1.4653    0.0000 H   0  0  0  0  0  0  0  0  0  0  0  0
   -3.1394    1.9180    0.0000 H   0  0  0  0  0  0  0  0  0  0  0  0
   -2.1000   -0.8962    0.0000 H   0  0  0  0  0  0  0  0  0  0  0  0
    5.7798   -4.0705    0.0000 H   0  0  0  0  0  0  0  0  0  0  0  0
   -3.1266   -2.4460    0.0000 H   0  0  0  0  0  0  0  0  0  0  0  0
   -4.9269    2.4283    0.0000 H   0  0  0  0  0  0  0  0  0  0  0  0
   -5.9408   -3.4854    0.0000 H   0  0  0  0  0  0  0  0  0  0  0  0
   -7.7411    1.3889    0.0000 H   0  0  0  0  0  0  0  0  0  0  0  0
  1 21  1  0
  2  8  2  0
  3  8  1  0
  3 11  1  0
  3 26  1  0
  4  5  1  0
  4  6  1  0
  4  7  1  0
  4  8  1  0
  5  6  1  0
  5 24  1  0
  5 25  1  0
  6 22  1  0
  6 23  1  0
  7  9  2  0
  7 10  1  0
  9 12  1  0
  9 27  1  0
 10 13  2  0
 10 28  1  0
 11 14  1  0
 11 29  1  0
 11 30  1  0
 12 15  2  0
 12 31  1  0
 13 15  1  0
 13 32  1  0
 14 16  1  0
 14 33  1  0
 14 34  1  0
 15 35  1  0
 16 17  2  0
 16 18  1  0
 17 19  1  0
 17 36  1  0
 18 20  2  0
 18 37  1  0
 19 21  2  0
 19 38  1  0
 20 21  1  0
 20 39  1  0
M  STY  8   1 DAT   2 DAT   3 DAT   4 DAT   5 DAT   6 DAT   7 DAT   8 DAT
M  STY  8   9 DAT  10 DAT  11 DAT  12 DAT  13 DAT  14 DAT  15 DAT  16 DAT
M  STY  8  17 DAT  18 DAT  19 DAT  20 DAT  21 DAT  22 DAT  23 DAT  24 DAT
M  STY  8  25 DAT  26 DAT  27 DAT  28 DAT  29 DAT  30 DAT  31 DAT  32 DAT
M  STY  7  33 DAT  34 DAT  35 DAT  36 DAT  37 DAT  38 DAT  39 DAT
M  SAL   1  1   1
M  SED   1 [#17&h0]
M  SAL   2  1   2
M  SED   2 [#8&h0]
M  SAL   3  1   3
M  SED   3 [#7&h0]
M  SAL   4  1   4
M  SED   4 [#6&h0]
M  SAL   5  1   5
M  SED   5 [#6&h0]
M  SAL   6  1   6
M  SED   6 [#6&h0]
M  SAL   7  1   7
M  SED   7 [#6&h0]
M  SAL   8  1   8
M  SED   8 [#6&h0]
M  SAL   9  1   9
M  SED   9 [#6&h0]
M  SAL  10  1  10
M  SED  10 [#6&h0]
M  SAL  11  1  11
M  SED  11 [#6&h0]
M  SAL  12  1  12
M  SED  12 [#6&h0]
M  SAL  13  1  13
M  SED  13 [#6&h0]
M  SAL  14  1  14
M  SED  14 [#6&h0]
M  SAL  15  1  15
M  SED  15 [#6&h0]
M  SAL  16  1  16
M  SED  16 [#6&h0]
M  SAL  17  1  17
M  SED  17 [#6&h0]
M  SAL  18  1  18
M  SED  18 [#6&h0]
M  SAL  19  1  19
M  SED  19 [#6&h0]
M  SAL  20  1  20
M  SED  20 [#6&h0]
M  SAL  21  1  21
M  SED  21 [#6&h0]
M  SAL  22  1  22
M  SED  22 [#1&h0]
M  SAL  23  1  23
M  SED  23 [#1&h0]
M  SAL  24  1  24
M  SED  24 [#1&h0]
M  SAL  25  1  25
M  SED  25 [#1&h0]
M  SAL  26  1  26
M  SED  26 [#1&h0]
M  SAL  27  1  27
M  SED  27 [#1&h0]
M  SAL  28  1  28
M  SED  28 [#1&h0]
M  SAL  29  1  29
M  SED  29 [#1&h0]
M  SAL  30  1  30
M  SED  30 [#1&h0]
M  SAL  31  1  31
M  SED  31 [#1&h0]
M  SAL  32  1  32
M  SED  32 [#1&h0]
M  SAL  33  1  33
M  SED  33 [#1&h0]
M  SAL  34  1  34
M  SED  34 [#1&h0]
M  SAL  35  1  35
M  SED  35 [#1&h0]
M  SAL  36  1  36
M  SED  36 [#1&h0]
M  SAL  37  1  37
M  SED  37 [#1&h0]
M  SAL  38  1  38
M  SED  38 [#1&h0]
M  SAL  39  1  39
M  SED  39 [#1&h0]
M  END
>  <Activity>  (107) 
0.01

>  <Mapped(file=2032.csv.activities,property=Cached(PUBCHEM_COMPOUND_CID))>  (107) 
100

>  <MatchIndices>  (107) 
68 

>  <PUBCHEM_ATOM_DEF_STEREO_COUNT>  (107) 
0

>  <PUBCHEM_ATOM_UDEF_STEREO_COUNT>  (107) 
0

>  <PUBCHEM_BONDANNOTATIONS>  (107) 
10  13  8
12  15  8
13  15  8
16  17  8
16  18  8
17  19  8
18  20  8
19  21  8
20  21  8
7  10  8
7  9  8
9  12  8

>  <PUBCHEM_BOND_DEF_STEREO_COUNT>  (107) 
0

>  <PUBCHEM_BOND_UDEF_STEREO_COUNT>  (107) 
0

>  <PUBCHEM_CACTVS_COMPLEXITY>  (107) 
352

>  <PUBCHEM_CACTVS_HBOND_ACCEPTOR>  (107) 
1

>  <PUBCHEM_CACTVS_HBOND_DONOR>  (107) 
1

>  <PUBCHEM_CACTVS_ROTATABLE_BOND>  (107) 
5

>  <PUBCHEM_CACTVS_SUBSKEYS>  (107) 
AAADceB6IAAEAAAAAAAAAAAAGAAAAAAAAAAwYAAAAAAAAAABQAAAHgIQAAAADgLBmCQwAILAAACIAiFSEAACAAAgBQAIiIEIAogIIDKBlxGEIAAglgCIiAcYiMCPhAAAAAAAAAAIAAAAAAAAAAAAAAAAAA==

>  <PUBCHEM_CACTVS_TAUTO_COUNT>  (107) 
2

>  <PUBCHEM_CACTVS_TPSA>  (107) 
29.1

>  <PUBCHEM_COMPONENT_COUNT>  (107) 
1

>  <PUBCHEM_COMPOUND_CANONICALIZED>  (107) 
1

>  <PUBCHEM_COMPOUND_CID>  (107) 
24684626

>  <PUBCHEM_COORDINATE_TYPE>  (107) 
1
5
255

>  <PUBCHEM_EXACT_MASS>  (107) 
299.107692

>  <PUBCHEM_HEAVY_ATOM_COUNT>  (107) 
21

>  <PUBCHEM_ISOTOPIC_ATOM_COUNT>  (107) 
0

>  <PUBCHEM_IUPAC_CAS_NAME>  (107) 
N-[2-(4-chlorophenyl)ethyl]-1-phenyl-1-cyclopropanecarboxamide

>  <PUBCHEM_IUPAC_INCHI>  (107) 
InChI=1S/C18H18ClNO/c19-16-8-6-14(7-9-16)10-13-20-17(21)18(11-12-18)15-4-2-1-3-5-15/h1-9H,10-13H2,(H,20,21)

>  <PUBCHEM_IUPAC_INCHIKEY>  (107) 
DYSXUWYDYMFPAX-UHFFFAOYSA-N

>  <PUBCHEM_IUPAC_NAME>  (107) 
N-[2-(4-chlorophenyl)ethyl]-1-phenylcyclopropane-1-carboxamide

>  <PUBCHEM_IUPAC_OPENEYE_NAME>  (107) 
N-[2-(4-chlorophenyl)ethyl]-1-phenyl-cyclopropanecarboxamide

>  <PUBCHEM_IUPAC_SYSTEMATIC_NAME>  (107) 
N-[2-(4-chlorophenyl)ethyl]-1-phenyl-cyclopropane-1-carboxamide

>  <PUBCHEM_IUPAC_TRADITIONAL_NAME>  (107) 
N-[2-(4-chlorophenyl)ethyl]-1-phenyl-cyclopropanecarboxamide

>  <PUBCHEM_MOLECULAR_FORMULA>  (107) 
C18H18ClNO

>  <PUBCHEM_MOLECULAR_WEIGHT>  (107) 
299.79462

>  <PUBCHEM_MONOISOTOPIC_WEIGHT>  (107) 
299.107692

>  <PUBCHEM_OPENEYE_CAN_SMILES>  (107) 
C1CC1(C2=CC=CC=C2)C(=O)NCCC3=CC=C(C=C3)Cl

>  <PUBCHEM_OPENEYE_ISO_SMILES>  (107) 
C1CC1(C2=CC=CC=C2)C(=O)NCCC3=CC=C(C=C3)Cl

>  <PUBCHEM_TOTAL_CHARGE>  (107) 
0

>  <PUBCHEM_XLOGP3_AA>  (107) 
4.1

$$$$
Largest isolated from Written by BCL::WriteToMDL,16192635
     RDKit          2D

 50 52  0 50  0  0  0  0  0  0999 V2000
   -0.8118    1.0944    0.0000 O   0  0  0  0  0  0  0  0  0  0  0  0
   -2.9601   -0.9996    0.0000 O   0  0  0  0  0  0  0  0  0  0  0  0
    3.1500    1.3279    0.0000 N   0  0  0  0  0  0  0  0  0  0  0  0
    7.8510   -1.3461    0.0000 N   0  0  0  0  0  0  0  0  0  0  0  0
    1.0017   -0.7661    0.0000 C   0  0  0  0  0  0  0  0  0  0  0  0
    2.0758    0.2809    0.0000 C   0  0  0  0  0  0  0  0  0  0  0  0
   -0.4421   -0.3593    0.0000 C   0  0  0  0  0  0  0  0  0  0  0  0
   -1.5163   -1.4063    0.0000 C   0  0  0  0  0  0  0  0  0  0  0  0
    4.5938    0.9211    0.0000 C   0  0  0  0  0  0  0  0  0  0  0  0
    1.3713   -2.2198    0.0000 C   0  0  0  0  0  0  0  0  0  0  0  0
   -1.1466   -2.8601    0.0000 C   0  0  0  0  0  0  0  0  0  0  0  0
    0.2972   -3.2668    0.0000 C   0  0  0  0  0  0  0  0  0  0  0  0
   -2.2556    1.5012    0.0000 C   0  0  0  0  0  0  0  0  0  0  0  0
    6.0376    0.5144    0.0000 C   0  0  0  0  0  0  0  0  0  0  0  0
   -3.6993    1.9079    0.0000 C   0  0  0  0  0  0  0  0  0  0  0  0
   -4.0342   -2.0466    0.0000 C   0  0  0  0  0  0  0  0  0  0  0  0
    7.1118    1.5614    0.0000 C   0  0  0  0  0  0  0  0  0  0  0  0
    6.4072   -0.9394    0.0000 C   0  0  0  0  0  0  0  0  0  0  0  0
   -4.0690    3.3617    0.0000 C   0  0  0  0  0  0  0  0  0  0  0  0
   -4.7735    0.8609    0.0000 C   0  0  0  0  0  0  0  0  0  0  0  0
    8.5556    1.1546    0.0000 C   0  0  0  0  0  0  0  0  0  0  0  0
   -5.5128    3.7684    0.0000 C   0  0  0  0  0  0  0  0  0  0  0  0
   -6.2173    1.2677    0.0000 C   0  0  0  0  0  0  0  0  0  0  0  0
   -5.1084   -3.0935    0.0000 C   0  0  0  0  0  0  0  0  0  0  0  0
   -6.5869    2.7214    0.0000 C   0  0  0  0  0  0  0  0  0  0  0  0
    8.9252   -0.2991    0.0000 C   0  0  0  0  0  0  0  0  0  0  0  0
    1.0289    1.3551    0.0000 H   0  0  0  0  0  0  0  0  0  0  0  0
    3.1228   -0.7933    0.0000 H   0  0  0  0  0  0  0  0  0  0  0  0
    2.7804    2.7816    0.0000 H   0  0  0  0  0  0  0  0  0  0  0  0
    5.0006    2.3649    0.0000 H   0  0  0  0  0  0  0  0  0  0  0  0
    4.1870   -0.5227    0.0000 H   0  0  0  0  0  0  0  0  0  0  0  0
    2.8151   -2.6266    0.0000 H   0  0  0  0  0  0  0  0  0  0  0  0
   -2.2208   -3.9071    0.0000 H   0  0  0  0  0  0  0  0  0  0  0  0
    0.6668   -4.7206    0.0000 H   0  0  0  0  0  0  0  0  0  0  0  0
   -1.8488    2.9450    0.0000 H   0  0  0  0  0  0  0  0  0  0  0  0
   -2.6623    0.0574    0.0000 H   0  0  0  0  0  0  0  0  0  0  0  0
   -4.9820   -1.2864    0.0000 H   0  0  0  0  0  0  0  0  0  0  0  0
   -2.9872   -3.1207    0.0000 H   0  0  0  0  0  0  0  0  0  0  0  0
    6.7421    3.0151    0.0000 H   0  0  0  0  0  0  0  0  0  0  0  0
    5.3331   -1.9864    0.0000 H   0  0  0  0  0  0  0  0  0  0  0  0
   -2.9948    4.4086    0.0000 H   0  0  0  0  0  0  0  0  0  0  0  0
   -4.6199   -0.3443    0.0000 H   0  0  0  0  0  0  0  0  0  0  0  0
    9.6297    2.2016    0.0000 H   0  0  0  0  0  0  0  0  0  0  0  0
   -5.8824    5.2222    0.0000 H   0  0  0  0  0  0  0  0  0  0  0  0
   -7.2915    0.2207    0.0000 H   0  0  0  0  0  0  0  0  0  0  0  0
   -6.1554   -2.0194    0.0000 H   0  0  0  0  0  0  0  0  0  0  0  0
   -4.0614   -4.1677    0.0000 H   0  0  0  0  0  0  0  0  0  0  0  0
   -6.1825   -4.1405    0.0000 H   0  0  0  0  0  0  0  0  0  0  0  0
   -8.0307    3.1282    0.0000 H   0  0  0  0  0  0  0  0  0  0  0  0
   10.3690   -0.7059    0.0000 H   0  0  0  0  0  0  0  0  0  0  0  0
  1  7  1  0
  1 13  1  0
  2  8  1  0
  2 16  1  0
  3  6  1  0
  3  9  1  0
  3 29  1  0
  4 18  2  0
  4 26  1  0
  5  6  1  0
  5  7  1  0
  5 10  2  0
  6 27  1  0
  6 28  1  0
  7  8  2  0
  8 11  1  0
  9 14  1  0
  9 30  1  0
  9 31  1  0
 10 12  1  0
 10 32  1  0
 11 12  2  0
 11 33  1  0
 12 34  1  0
 13 15  1  0
 13 35  1  0
 13 36  1  0
 14 17  2  0
 14 18  1  0
 15 19  2  0
 15 20  1  0
 16 24  1  0
 16 37  1  0
 16 38  1  0
 17 21  1  0
 17 39  1  0
 18 40  1  0
 19 22  1  0
 19 41  1  0
 20 23  2  0
 20 42  1  0
 21 26  2  0
 21 43  1  0
 22 25  2  0
 22 44  1  0
 23 25  1  0
 23 45  1  0
 24 46  1  0
 24 47  1  0
 24 48  1  0
 25 49  1  0
 26 50  1  0
M  STY  8   1 DAT   2 DAT   3 DAT   4 DAT   5 DAT   6 DAT   7 DAT   8 DAT
M  STY  8   9 DAT  10 DAT  11 DAT  12 DAT  13 DAT  14 DAT  15 DAT  16 DAT
M  STY  8  17 DAT  18 DAT  19 DAT  20 DAT  21 DAT  22 DAT  23 DAT  24 DAT
M  STY  8  25 DAT  26 DAT  27 DAT  28 DAT  29 DAT  30 DAT  31 DAT  32 DAT
M  STY  8  33 DAT  34 DAT  35 DAT  36 DAT  37 DAT  38 DAT  39 DAT  40 DAT
M  STY  8  41 DAT  42 DAT  43 DAT  44 DAT  45 DAT  46 DAT  47 DAT  48 DAT
M  STY  2  49 DAT  50 DAT
M  SAL   1  1   1
M  SED   1 [#8&h0]
M  SAL   2  1   2
M  SED   2 [#8&h0]
M  SAL   3  1   3
M  SED   3 [#7&h0]
M  SAL   4  1   4
M  SED   4 [#7&h0]
M  SAL   5  1   5
M  SED   5 [#6&h0]
M  SAL   6  1   6
M  SED   6 [#6&h0]
M  SAL   7  1   7
M  SED   7 [#6&h0]
M  SAL   8  1   8
M  SED   8 [#6&h0]
M  SAL   9  1   9
M  SED   9 [#6&h0]
M  SAL  10  1  10
M  SED  10 [#6&h0]
M  SAL  11  1  11
M  SED  11 [#6&h0]
M  SAL  12  1  12
M  SED  12 [#6&h0]
M  SAL  13  1  13
M  SED  13 [#6&h0]
M  SAL  14  1  14
M  SED  14 [#6&h0]
M  SAL  15  1  15
M  SED  15 [#6&h0]
M  SAL  16  1  16
M  SED  16 [#6&h0]
M  SAL  17  1  17
M  SED  17 [#6&h0]
M  SAL  18  1  18
M  SED  18 [#6&h0]
M  SAL  19  1  19
M  SED  19 [#6&h0]
M  SAL  20  1  20
M  SED  20 [#6&h0]
M  SAL  21  1  21
M  SED  21 [#6&h0]
M  SAL  22  1  22
M  SED  22 [#6&h0]
M  SAL  23  1  23
M  SED  23 [#6&h0]
M  SAL  24  1  24
M  SED  24 [#6&h0]
M  SAL  25  1  25
M  SED  25 [#6&h0]
M  SAL  26  1  26
M  SED  26 [#6&h0]
M  SAL  27  1  27
M  SED  27 [#1&h0]
M  SAL  28  1  28
M  SED  28 [#1&h0]
M  SAL  29  1  29
M  SED  29 [#1&h0]
M  SAL  30  1  30
M  SED  30 [#1&h0]
M  SAL  31  1  31
M  SED  31 [#1&h0]
M  SAL  32  1  32
M  SED  32 [#1&h0]
M  SAL  33  1  33
M  SED  33 [#1&h0]
M  SAL  34  1  34
M  SED  34 [#1&h0]
M  SAL  35  1  35
M  SED  35 [#1&h0]
M  SAL  36  1  36
M  SED  36 [#1&h0]
M  SAL  37  1  37
M  SED  37 [#1&h0]
M  SAL  38  1  38
M  SED  38 [#1&h0]
M  SAL  39  1  39
M  SED  39 [#1&h0]
M  SAL  40  1  40
M  SED  40 [#1&h0]
M  SAL  41  1  41
M  SED  41 [#1&h0]
M  SAL  42  1  42
M  SED  42 [#1&h0]
M  SAL  43  1  43
M  SED  43 [#1&h0]
M  SAL  44  1  44
M  SED  44 [#1&h0]
M  SAL  45  1  45
M  SED  45 [#1&h0]
M  SAL  46  1  46
M  SED  46 [#1&h0]
M  SAL  47  1  47
M  SED  47 [#1&h0]
M  SAL  48  1  48
M  SED  48 [#1&h0]
M  SAL  49  1  49
M  SED  49 [#1&h0]
M  SAL  50  1  50
M  SED  50 [#1&h0]
M  END
>  <Activity>  (108) 
0.01

>  <Mapped(file=2032.csv.activities,property=Cached(PUBCHEM_COMPOUND_CID))>  (108) 
100

>  <MatchIndices>  (108) 
83 

>  <PUBCHEM_ATOM_DEF_STEREO_COUNT>  (108) 
0

>  <PUBCHEM_ATOM_UDEF_STEREO_COUNT>  (108) 
0

>  <PUBCHEM_BONDANNOTATIONS>  (108) 
11  13  8
12  13  8
15  18  8
15  19  8
16  20  8
16  21  8
18  22  8
20  23  8
21  24  8
22  27  8
23  26  8
24  26  8
5  19  8
5  27  8
6  11  8
6  8  8
8  9  8
9  12  8

>  <PUBCHEM_BOND_DEF_STEREO_COUNT>  (108) 
0

>  <PUBCHEM_BOND_UDEF_STEREO_COUNT>  (108) 
0

>  <PUBCHEM_CACTVS_COMPLEXITY>  (108) 
373

>  <PUBCHEM_CACTVS_HBOND_ACCEPTOR>  (108) 
4

>  <PUBCHEM_CACTVS_HBOND_DONOR>  (108) 
2

>  <PUBCHEM_CACTVS_ROTATABLE_BOND>  (108) 
9

>  <PUBCHEM_CACTVS_SUBSKEYS>  (108) 
AAADceB7MAAEAAAAAAAAAAAAAAAAAAAAAAA8YIAAAAAAAAAB0AAAHgAQAAAADAThmgY+hpLIFACgAjBnRACCiCAxIiAI2KA+7JgNJuLE8ZuGOCrmwBHK6AewwDAOAAABAAAIQAAAAAIAABCAAAAAAAAAAA==

>  <PUBCHEM_CACTVS_TAUTO_COUNT>  (108) 
1

>  <PUBCHEM_CACTVS_TPSA>  (108) 
43.4

>  <PUBCHEM_COMPONENT_COUNT>  (108) 
2

>  <PUBCHEM_COMPOUND_CANONICALIZED>  (108) 
1

>  <PUBCHEM_COMPOUND_CID>  (108) 
16192635

>  <PUBCHEM_COORDINATE_TYPE>  (108) 
1
5
255

>  <PUBCHEM_EXACT_MASS>  (108) 
384.160456

>  <PUBCHEM_HEAVY_ATOM_COUNT>  (108) 
27

>  <PUBCHEM_ISOTOPIC_ATOM_COUNT>  (108) 
0

>  <PUBCHEM_IUPAC_CAS_NAME>  (108) 
N-[(3-ethoxy-2-phenylmethoxyphenyl)methyl]-1-(3-pyridinyl)methanamine hydrochloride

>  <PUBCHEM_IUPAC_INCHI>  (108) 
InChI=1S/C22H24N2O2.ClH/c1-2-25-21-12-6-11-20(16-24-15-19-10-7-13-23-14-19)22(21)26-17-18-8-4-3-5-9-18;/h3-14,24H,2,15-17H2,1H3;1H

>  <PUBCHEM_IUPAC_INCHIKEY>  (108) 
WMUTVXCYQMMSFY-UHFFFAOYSA-N

>  <PUBCHEM_IUPAC_NAME>  (108) 
N-[(3-ethoxy-2-phenylmethoxyphenyl)methyl]-1-pyridin-3-ylmethanamine hydrochloride

>  <PUBCHEM_IUPAC_OPENEYE_NAME>  (108) 
N-[(2-benzyloxy-3-ethoxy-phenyl)methyl]-1-(3-pyridyl)methanamine hydrochloride

>  <PUBCHEM_IUPAC_SYSTEMATIC_NAME>  (108) 
N-[(3-ethoxy-2-phenylmethoxy-phenyl)methyl]-1-pyridin-3-yl-methanamine hydrochloride

>  <PUBCHEM_IUPAC_TRADITIONAL_NAME>  (108) 
(2-benzoxy-3-ethoxy-benzyl)-(3-pyridylmethyl)amine hydrochloride

>  <PUBCHEM_MOLECULAR_FORMULA>  (108) 
C22H25ClN2O2

>  <PUBCHEM_MOLECULAR_WEIGHT>  (108) 
384.8991

>  <PUBCHEM_MONOISOTOPIC_WEIGHT>  (108) 
384.160456

>  <PUBCHEM_OPENEYE_CAN_SMILES>  (108) 
CCOC1=CC=CC(=C1OCC2=CC=CC=C2)CNCC3=CN=CC=C3.Cl

>  <PUBCHEM_OPENEYE_ISO_SMILES>  (108) 
CCOC1=CC=CC(=C1OCC2=CC=CC=C2)CNCC3=CN=CC=C3.Cl

>  <PUBCHEM_TOTAL_CHARGE>  (108) 
0

$$$$
Largest isolated from Written by BCL::WriteToMDL,882485
     RDKit          2D

 39 39  0 39  0  0  0  0  0  0999 V2000
   -5.8529    1.6562    0.0000 Cl  0  0  0  0  0  0  0  0  0  0  0  0
   -0.0136    0.2770    0.0000 S   0  0  0  0  0  0  0  0  0  0  0  0
   -0.3584   -1.1828    0.0000 O   0  0  0  0  0  0  0  0  0  0  0  0
    0.3312    1.7368    0.0000 O   0  0  0  0  0  0  0  0  0  0  0  0
   -4.9903   -1.2171    0.0000 O   0  0  0  0  0  0  0  0  0  0  0  0
    1.4462   -0.0678    0.0000 N   0  0  0  0  0  0  0  0  0  0  0  0
    2.4747    1.0241    0.0000 C   0  0  0  0  0  0  0  0  0  0  0  0
    1.8775   -1.5044    0.0000 C   0  0  0  0  0  0  0  0  0  0  0  0
    3.5033    2.1159    0.0000 C   0  0  0  0  0  0  0  0  0  0  0  0
    2.3088   -2.9411    0.0000 C   0  0  0  0  0  0  0  0  0  0  0  0
   -1.4734    0.6218    0.0000 C   0  0  0  0  0  0  0  0  0  0  0  0
    4.5318    3.2078    0.0000 C   0  0  0  0  0  0  0  0  0  0  0  0
    2.7401   -4.3778    0.0000 C   0  0  0  0  0  0  0  0  0  0  0  0
   -2.5020   -0.4700    0.0000 C   0  0  0  0  0  0  0  0  0  0  0  0
   -1.9047    2.0585    0.0000 C   0  0  0  0  0  0  0  0  0  0  0  0
   -3.9618   -0.1252    0.0000 C   0  0  0  0  0  0  0  0  0  0  0  0
   -3.3646    2.4033    0.0000 C   0  0  0  0  0  0  0  0  0  0  0  0
   -4.3931    1.3114    0.0000 C   0  0  0  0  0  0  0  0  0  0  0  0
   -6.4502   -0.8723    0.0000 C   0  0  0  0  0  0  0  0  0  0  0  0
    3.3142   -1.0731    0.0000 H   0  0  0  0  0  0  0  0  0  0  0  0
    0.4409   -1.9357    0.0000 H   0  0  0  0  0  0  0  0  0  0  0  0
    3.5666   -0.0045    0.0000 H   0  0  0  0  0  0  0  0  0  0  0  0
    1.3829    2.0526    0.0000 H   0  0  0  0  0  0  0  0  0  0  0  0
    2.4114    3.1444    0.0000 H   0  0  0  0  0  0  0  0  0  0  0  0
    4.5951    1.0874    0.0000 H   0  0  0  0  0  0  0  0  0  0  0  0
    0.8722   -3.3724    0.0000 H   0  0  0  0  0  0  0  0  0  0  0  0
    3.7455   -2.5098    0.0000 H   0  0  0  0  0  0  0  0  0  0  0  0
    4.1768   -3.9465    0.0000 H   0  0  0  0  0  0  0  0  0  0  0  0
    1.3035   -4.8091    0.0000 H   0  0  0  0  0  0  0  0  0  0  0  0
    3.1714   -5.8144    0.0000 H   0  0  0  0  0  0  0  0  0  0  0  0
    5.6237    2.1792    0.0000 H   0  0  0  0  0  0  0  0  0  0  0  0
    3.4400    4.2363    0.0000 H   0  0  0  0  0  0  0  0  0  0  0  0
    5.5603    4.2996    0.0000 H   0  0  0  0  0  0  0  0  0  0  0  0
   -2.0707   -1.9067    0.0000 H   0  0  0  0  0  0  0  0  0  0  0  0
   -0.8762    3.1503    0.0000 H   0  0  0  0  0  0  0  0  0  0  0  0
   -3.7959    3.8399    0.0000 H   0  0  0  0  0  0  0  0  0  0  0  0
   -6.7950   -2.3321    0.0000 H   0  0  0  0  0  0  0  0  0  0  0  0
   -6.1054    0.5876    0.0000 H   0  0  0  0  0  0  0  0  0  0  0  0
   -7.9100   -0.5275    0.0000 H   0  0  0  0  0  0  0  0  0  0  0  0
  1 18  1  0
  2  3  2  0
  2  4  2  0
  2  6  1  0
  2 11  1  0
  5 16  1  0
  5 19  1  0
  6  7  1  0
  6  8  1  0
  7  9  1  0
  7 22  1  0
  7 23  1  0
  8 10  1  0
  8 20  1  0
  8 21  1  0
  9 12  1  0
  9 24  1  0
  9 25  1  0
 10 13  1  0
 10 26  1  0
 10 27  1  0
 11 14  2  0
 11 15  1  0
 12 31  1  0
 12 32  1  0
 12 33  1  0
 13 28  1  0
 13 29  1  0
 13 30  1  0
 14 16  1  0
 14 34  1  0
 15 17  2  0
 15 35  1  0
 16 18  2  0
 17 18  1  0
 17 36  1  0
 19 37  1  0
 19 38  1  0
 19 39  1  0
M  STY  8   1 DAT   2 DAT   3 DAT   4 DAT   5 DAT   6 DAT   7 DAT   8 DAT
M  STY  8   9 DAT  10 DAT  11 DAT  12 DAT  13 DAT  14 DAT  15 DAT  16 DAT
M  STY  8  17 DAT  18 DAT  19 DAT  20 DAT  21 DAT  22 DAT  23 DAT  24 DAT
M  STY  8  25 DAT  26 DAT  27 DAT  28 DAT  29 DAT  30 DAT  31 DAT  32 DAT
M  STY  7  33 DAT  34 DAT  35 DAT  36 DAT  37 DAT  38 DAT  39 DAT
M  SAL   1  1   1
M  SED   1 [#17&h0]
M  SAL   2  1   2
M  SED   2 [#16&h0]
M  SAL   3  1   3
M  SED   3 [#8&h0]
M  SAL   4  1   4
M  SED   4 [#8&h0]
M  SAL   5  1   5
M  SED   5 [#8&h0]
M  SAL   6  1   6
M  SED   6 [#7&h0]
M  SAL   7  1   7
M  SED   7 [#6&h0]
M  SAL   8  1   8
M  SED   8 [#6&h0]
M  SAL   9  1   9
M  SED   9 [#6&h0]
M  SAL  10  1  10
M  SED  10 [#6&h0]
M  SAL  11  1  11
M  SED  11 [#6&h0]
M  SAL  12  1  12
M  SED  12 [#6&h0]
M  SAL  13  1  13
M  SED  13 [#6&h0]
M  SAL  14  1  14
M  SED  14 [#6&h0]
M  SAL  15  1  15
M  SED  15 [#6&h0]
M  SAL  16  1  16
M  SED  16 [#6&h0]
M  SAL  17  1  17
M  SED  17 [#6&h0]
M  SAL  18  1  18
M  SED  18 [#6&h0]
M  SAL  19  1  19
M  SED  19 [#6&h0]
M  SAL  20  1  20
M  SED  20 [#1&h0]
M  SAL  21  1  21
M  SED  21 [#1&h0]
M  SAL  22  1  22
M  SED  22 [#1&h0]
M  SAL  23  1  23
M  SED  23 [#1&h0]
M  SAL  24  1  24
M  SED  24 [#1&h0]
M  SAL  25  1  25
M  SED  25 [#1&h0]
M  SAL  26  1  26
M  SED  26 [#1&h0]
M  SAL  27  1  27
M  SED  27 [#1&h0]
M  SAL  28  1  28
M  SED  28 [#1&h0]
M  SAL  29  1  29
M  SED  29 [#1&h0]
M  SAL  30  1  30
M  SED  30 [#1&h0]
M  SAL  31  1  31
M  SED  31 [#1&h0]
M  SAL  32  1  32
M  SED  32 [#1&h0]
M  SAL  33  1  33
M  SED  33 [#1&h0]
M  SAL  34  1  34
M  SED  34 [#1&h0]
M  SAL  35  1  35
M  SED  35 [#1&h0]
M  SAL  36  1  36
M  SED  36 [#1&h0]
M  SAL  37  1  37
M  SED  37 [#1&h0]
M  SAL  38  1  38
M  SED  38 [#1&h0]
M  SAL  39  1  39
M  SED  39 [#1&h0]
M  END
>  <Activity>  (109) 
0.01

>  <Mapped(file=2032.csv.activities,property=Cached(PUBCHEM_COMPOUND_CID))>  (109) 
100

>  <MatchIndices>  (109) 
113 

>  <PUBCHEM_ATOM_DEF_STEREO_COUNT>  (109) 
0

>  <PUBCHEM_ATOM_UDEF_STEREO_COUNT>  (109) 
0

>  <PUBCHEM_BONDANNOTATIONS>  (109) 
11  14  8
11  15  8
14  16  8
15  17  8
16  18  8
17  18  8

>  <PUBCHEM_BOND_DEF_STEREO_COUNT>  (109) 
0

>  <PUBCHEM_BOND_UDEF_STEREO_COUNT>  (109) 
0

>  <PUBCHEM_CACTVS_COMPLEXITY>  (109) 
349

>  <PUBCHEM_CACTVS_HBOND_ACCEPTOR>  (109) 
4

>  <PUBCHEM_CACTVS_HBOND_DONOR>  (109) 
0

>  <PUBCHEM_CACTVS_ROTATABLE_BOND>  (109) 
7

>  <PUBCHEM_CACTVS_SUBSKEYS>  (109) 
AAADceByMABEAAAAAAAAAAAAAAAAAAAAAAAwAAAAAAAAAAABAAAAHgYAQAAACAbB0CYyB4IABAKAACBCAHBCCBAgJUAIiBgOC4gMJiOFMxqEMCAkwBGIqAeAQAAAAAIABAAACAAABAAIAAAQAAAAAAAAAA==

>  <PUBCHEM_CACTVS_TAUTO_COUNT>  (109) 
1

>  <PUBCHEM_CACTVS_TPSA>  (109) 
55

>  <PUBCHEM_COMPONENT_COUNT>  (109) 
1

>  <PUBCHEM_COMPOUND_CANONICALIZED>  (109) 
1

>  <PUBCHEM_COMPOUND_CID>  (109) 
882485

>  <PUBCHEM_COORDINATE_TYPE>  (109) 
1
5
255

>  <PUBCHEM_EXACT_MASS>  (109) 
305.085242

>  <PUBCHEM_HEAVY_ATOM_COUNT>  (109) 
19

>  <PUBCHEM_ISOTOPIC_ATOM_COUNT>  (109) 
0

>  <PUBCHEM_IUPAC_CAS_NAME>  (109) 
4-chloro-3-methoxy-N,N-dipropylbenzenesulfonamide

>  <PUBCHEM_IUPAC_INCHI>  (109) 
InChI=1S/C13H20ClNO3S/c1-4-8-15(9-5-2)19(16,17)11-6-7-12(14)13(10-11)18-3/h6-7,10H,4-5,8-9H2,1-3H3

>  <PUBCHEM_IUPAC_INCHIKEY>  (109) 
FWYAVBKFNQPRHI-UHFFFAOYSA-N

>  <PUBCHEM_IUPAC_NAME>  (109) 
4-chloro-3-methoxy-N,N-dipropylbenzenesulfonamide

>  <PUBCHEM_IUPAC_OPENEYE_NAME>  (109) 
4-chloro-3-methoxy-N,N-dipropyl-benzenesulfonamide

>  <PUBCHEM_IUPAC_SYSTEMATIC_NAME>  (109) 
4-chloranyl-3-methoxy-N,N-dipropyl-benzenesulfonamide

>  <PUBCHEM_IUPAC_TRADITIONAL_NAME>  (109) 
4-chloro-3-methoxy-N,N-dipropyl-benzenesulfonamide

>  <PUBCHEM_MOLECULAR_FORMULA>  (109) 
C13H20ClNO3S

>  <PUBCHEM_MOLECULAR_WEIGHT>  (109) 
305.8208

>  <PUBCHEM_MONOISOTOPIC_WEIGHT>  (109) 
305.085242

>  <PUBCHEM_OPENEYE_CAN_SMILES>  (109) 
CCCN(CCC)S(=O)(=O)C1=CC(=C(C=C1)Cl)OC

>  <PUBCHEM_OPENEYE_ISO_SMILES>  (109) 
CCCN(CCC)S(=O)(=O)C1=CC(=C(C=C1)Cl)OC

>  <PUBCHEM_TOTAL_CHARGE>  (109) 
0

>  <PUBCHEM_XLOGP3>  (109) 
4.1

$$$$
Largest isolated from Written by BCL::WriteToMDL,23724050
     RDKit          2D

 62 64  0 62  0  0  0  0  0  0999 V2000
  -10.4455   -3.3067    0.0000 F   0  0  0  0  0  0  0  0  0  0  0  0
    7.0940    1.0128    0.0000 O   0  0  0  0  0  0  0  0  0  0  0  0
    8.2969   -1.7354    0.0000 O   0  0  0  0  0  0  0  0  0  0  0  0
   -2.9526    1.6789    0.0000 N   0  0  0  0  0  0  0  0  0  0  0  0
    0.8431   -0.9045    0.0000 N   0  0  0  0  0  0  0  0  0  0  0  0
   -0.3598    1.8438    0.0000 C   0  0  0  0  0  0  0  0  0  0  0  0
   -1.6086    1.0128    0.0000 C   0  0  0  0  0  0  0  0  0  0  0  0
   -0.4550    3.3408    0.0000 C   0  0  0  0  0  0  0  0  0  0  0  0
   -1.7990    4.0068    0.0000 C   0  0  0  0  0  0  0  0  0  0  0  0
   -3.0478    3.1759    0.0000 C   0  0  0  0  0  0  0  0  0  0  0  0
    0.2417    0.4696    0.0000 C   0  0  0  0  0  0  0  0  0  0  0  0
   -4.2015    0.8480    0.0000 C   0  0  0  0  0  0  0  0  0  0  0  0
   -5.4503    0.0170    0.0000 C   0  0  0  0  0  0  0  0  0  0  0  0
    2.3339   -1.0707    0.0000 C   0  0  0  0  0  0  0  0  0  0  0  0
   -0.0462   -2.1124    0.0000 C   0  0  0  0  0  0  0  0  0  0  0  0
   -6.6991   -0.8139    0.0000 C   0  0  0  0  0  0  0  0  0  0  0  0
    3.8246   -1.2369    0.0000 C   0  0  0  0  0  0  0  0  0  0  0  0
   -8.0431   -0.1479    0.0000 C   0  0  0  0  0  0  0  0  0  0  0  0
   -6.6039   -2.3109    0.0000 C   0  0  0  0  0  0  0  0  0  0  0  0
    4.7140   -0.0289    0.0000 C   0  0  0  0  0  0  0  0  0  0  0  0
    4.4261   -2.6110    0.0000 C   0  0  0  0  0  0  0  0  0  0  0  0
    6.2047   -0.1951    0.0000 C   0  0  0  0  0  0  0  0  0  0  0  0
   -9.2919   -0.9788    0.0000 C   0  0  0  0  0  0  0  0  0  0  0  0
   -7.8527   -3.1418    0.0000 C   0  0  0  0  0  0  0  0  0  0  0  0
    5.9169   -2.7772    0.0000 C   0  0  0  0  0  0  0  0  0  0  0  0
    6.8062   -1.5692    0.0000 C   0  0  0  0  0  0  0  0  0  0  0  0
   -9.1967   -2.4758    0.0000 C   0  0  0  0  0  0  0  0  0  0  0  0
    8.5848    0.8466    0.0000 C   0  0  0  0  0  0  0  0  0  0  0  0
    9.1862   -0.5275    0.0000 C   0  0  0  0  0  0  0  0  0  0  0  0
    1.0979    2.1975    0.0000 H   0  0  0  0  0  0  0  0  0  0  0  0
   -1.1329    0.3732    0.0000 H   0  0  0  0  0  0  0  0  0  0  0  0
   -2.3440   -0.2945    0.0000 H   0  0  0  0  0  0  0  0  0  0  0  0
   -0.0325    4.7800    0.0000 H   0  0  0  0  0  0  0  0  0  0  0  0
    1.0358    3.1746    0.0000 H   0  0  0  0  0  0  0  0  0  0  0  0
   -2.8342    5.0924    0.0000 H   0  0  0  0  0  0  0  0  0  0  0  0
   -0.9097    5.2147    0.0000 H   0  0  0  0  0  0  0  0  0  0  0  0
   -4.5378    3.0025    0.0000 H   0  0  0  0  0  0  0  0  0  0  0  0
   -3.6493    4.5500    0.0000 H   0  0  0  0  0  0  0  0  0  0  0  0
   -0.4442    0.0634    0.0000 H   0  0  0  0  0  0  0  0  0  0  0  0
    1.6158    1.0711    0.0000 H   0  0  0  0  0  0  0  0  0  0  0  0
   -5.1784    1.9862    0.0000 H   0  0  0  0  0  0  0  0  0  0  0  0
   -3.5289   -0.4928    0.0000 H   0  0  0  0  0  0  0  0  0  0  0  0
   -4.6193   -1.2318    0.0000 H   0  0  0  0  0  0  0  0  0  0  0  0
   -6.2812    1.2658    0.0000 H   0  0  0  0  0  0  0  0  0  0  0  0
    2.1677   -2.5614    0.0000 H   0  0  0  0  0  0  0  0  0  0  0  0
    2.5001    0.4201    0.0000 H   0  0  0  0  0  0  0  0  0  0  0  0
    1.1618   -3.0017    0.0000 H   0  0  0  0  0  0  0  0  0  0  0  0
   -1.2541   -1.2231    0.0000 H   0  0  0  0  0  0  0  0  0  0  0  0
   -0.9355   -3.3204    0.0000 H   0  0  0  0  0  0  0  0  0  0  0  0
   -8.1383    1.3491    0.0000 H   0  0  0  0  0  0  0  0  0  0  0  0
   -5.2599   -2.9769    0.0000 H   0  0  0  0  0  0  0  0  0  0  0  0
    4.1125    1.3452    0.0000 H   0  0  0  0  0  0  0  0  0  0  0  0
    3.5368   -3.8189    0.0000 H   0  0  0  0  0  0  0  0  0  0  0  0
  -10.6359   -0.3128    0.0000 H   0  0  0  0  0  0  0  0  0  0  0  0
   -7.7575   -4.6388    0.0000 H   0  0  0  0  0  0  0  0  0  0  0  0
    6.5183   -4.1513    0.0000 H   0  0  0  0  0  0  0  0  0  0  0  0
    8.7510    2.3374    0.0000 H   0  0  0  0  0  0  0  0  0  0  0  0
    8.0628   -0.5596    0.0000 H   0  0  0  0  0  0  0  0  0  0  0  0
   10.0847    0.8634    0.0000 H   0  0  0  0  0  0  0  0  0  0  0  0
   10.3942   -1.4168    0.0000 H   0  0  0  0  0  0  0  0  0  0  0  0
    7.7990    0.0431    0.0000 H   0  0  0  0  0  0  0  0  0  0  0  0
   10.2162    0.5630    0.0000 H   0  0  0  0  0  0  0  0  0  0  0  0
  1 27  1  0
  2 22  1  0
  2 28  1  0
  3 26  1  0
  3 29  1  0
  4  7  1  0
  4 10  1  0
  4 12  1  0
  5 11  1  0
  5 14  1  0
  5 15  1  0
  6  7  1  0
  6  8  1  0
  6 11  1  0
  6 30  1  6
  7 31  1  0
  7 32  1  0
  8  9  1  0
  8 33  1  0
  8 34  1  0
  9 10  1  0
  9 35  1  0
  9 36  1  0
 10 37  1  0
 10 38  1  0
 11 39  1  0
 11 40  1  0
 12 13  1  0
 12 41  1  0
 12 42  1  0
 13 16  1  0
 13 43  1  0
 13 44  1  0
 14 17  1  0
 14 45  1  0
 14 46  1  0
 15 47  1  0
 15 48  1  0
 15 49  1  0
 16 18  2  0
 16 19  1  0
 17 20  2  0
 17 21  1  0
 18 23  1  0
 18 50  1  0
 19 24  2  0
 19 51  1  0
 20 22  1  0
 20 52  1  0
 21 25  2  0
 21 53  1  0
 22 26  2  0
 23 27  2  0
 23 54  1  0
 24 27  1  0
 24 55  1  0
 25 26  1  0
 25 56  1  0
 28 57  1  0
 28 58  1  0
 28 59  1  0
 29 60  1  0
 29 61  1  0
 29 62  1  0
M  STY  8   1 DAT   2 DAT   3 DAT   4 DAT   5 DAT   6 DAT   7 DAT   8 DAT
M  STY  8   9 DAT  10 DAT  11 DAT  12 DAT  13 DAT  14 DAT  15 DAT  16 DAT
M  STY  8  17 DAT  18 DAT  19 DAT  20 DAT  21 DAT  22 DAT  23 DAT  24 DAT
M  STY  8  25 DAT  26 DAT  27 DAT  28 DAT  29 DAT  30 DAT  31 DAT  32 DAT
M  STY  8  33 DAT  34 DAT  35 DAT  36 DAT  37 DAT  38 DAT  39 DAT  40 DAT
M  STY  8  41 DAT  42 DAT  43 DAT  44 DAT  45 DAT  46 DAT  47 DAT  48 DAT
M  STY  8  49 DAT  50 DAT  51 DAT  52 DAT  53 DAT  54 DAT  55 DAT  56 DAT
M  STY  6  57 DAT  58 DAT  59 DAT  60 DAT  61 DAT  62 DAT
M  SAL   1  1   1
M  SED   1 [#9&h0]
M  SAL   2  1   2
M  SED   2 [#8&h0]
M  SAL   3  1   3
M  SED   3 [#8&h0]
M  SAL   4  1   4
M  SED   4 [#7&h0]
M  SAL   5  1   5
M  SED   5 [#7&h0]
M  SAL   6  1   6
M  SED   6 [#6&h0]
M  SAL   7  1   7
M  SED   7 [#6&h0]
M  SAL   8  1   8
M  SED   8 [#6&h0]
M  SAL   9  1   9
M  SED   9 [#6&h0]
M  SAL  10  1  10
M  SED  10 [#6&h0]
M  SAL  11  1  11
M  SED  11 [#6&h0]
M  SAL  12  1  12
M  SED  12 [#6&h0]
M  SAL  13  1  13
M  SED  13 [#6&h0]
M  SAL  14  1  14
M  SED  14 [#6&h0]
M  SAL  15  1  15
M  SED  15 [#6&h0]
M  SAL  16  1  16
M  SED  16 [#6&h0]
M  SAL  17  1  17
M  SED  17 [#6&h0]
M  SAL  18  1  18
M  SED  18 [#6&h0]
M  SAL  19  1  19
M  SED  19 [#6&h0]
M  SAL  20  1  20
M  SED  20 [#6&h0]
M  SAL  21  1  21
M  SED  21 [#6&h0]
M  SAL  22  1  22
M  SED  22 [#6&h0]
M  SAL  23  1  23
M  SED  23 [#6&h0]
M  SAL  24  1  24
M  SED  24 [#6&h0]
M  SAL  25  1  25
M  SED  25 [#6&h0]
M  SAL  26  1  26
M  SED  26 [#6&h0]
M  SAL  27  1  27
M  SED  27 [#6&h0]
M  SAL  28  1  28
M  SED  28 [#6&h0]
M  SAL  29  1  29
M  SED  29 [#6&h0]
M  SAL  30  1  30
M  SED  30 [#1&h0]
M  SAL  31  1  31
M  SED  31 [#1&h0]
M  SAL  32  1  32
M  SED  32 [#1&h0]
M  SAL  33  1  33
M  SED  33 [#1&h0]
M  SAL  34  1  34
M  SED  34 [#1&h0]
M  SAL  35  1  35
M  SED  35 [#1&h0]
M  SAL  36  1  36
M  SED  36 [#1&h0]
M  SAL  37  1  37
M  SED  37 [#1&h0]
M  SAL  38  1  38
M  SED  38 [#1&h0]
M  SAL  39  1  39
M  SED  39 [#1&h0]
M  SAL  40  1  40
M  SED  40 [#1&h0]
M  SAL  41  1  41
M  SED  41 [#1&h0]
M  SAL  42  1  42
M  SED  42 [#1&h0]
M  SAL  43  1  43
M  SED  43 [#1&h0]
M  SAL  44  1  44
M  SED  44 [#1&h0]
M  SAL  45  1  45
M  SED  45 [#1&h0]
M  SAL  46  1  46
M  SED  46 [#1&h0]
M  SAL  47  1  47
M  SED  47 [#1&h0]
M  SAL  48  1  48
M  SED  48 [#1&h0]
M  SAL  49  1  49
M  SED  49 [#1&h0]
M  SAL  50  1  50
M  SED  50 [#1&h0]
M  SAL  51  1  51
M  SED  51 [#1&h0]
M  SAL  52  1  52
M  SED  52 [#1&h0]
M  SAL  53  1  53
M  SED  53 [#1&h0]
M  SAL  54  1  54
M  SED  54 [#1&h0]
M  SAL  55  1  55
M  SED  55 [#1&h0]
M  SAL  56  1  56
M  SED  56 [#1&h0]
M  SAL  57  1  57
M  SED  57 [#1&h0]
M  SAL  58  1  58
M  SED  58 [#1&h0]
M  SAL  59  1  59
M  SED  59 [#1&h0]
M  SAL  60  1  60
M  SED  60 [#1&h0]
M  SAL  61  1  61
M  SED  61 [#1&h0]
M  SAL  62  1  62
M  SED  62 [#1&h0]
M  END
>  <Activity>  (110) 
0.01

>  <Mapped(file=2032.csv.activities,property=Cached(PUBCHEM_COMPOUND_CID))>  (110) 
100

>  <MatchIndices>  (110) 
148 

>  <PUBCHEM_ATOM_DEF_STEREO_COUNT>  (110) 
0

>  <PUBCHEM_ATOM_UDEF_STEREO_COUNT>  (110) 
1

>  <PUBCHEM_BONDANNOTATIONS>  (110) 
16  18  8
16  19  8
17  20  8
17  21  8
18  23  8
19  24  8
20  22  8
21  25  8
22  26  8
23  27  8
24  27  8
25  26  8
6  11  3

>  <PUBCHEM_BOND_DEF_STEREO_COUNT>  (110) 
0

>  <PUBCHEM_BOND_UDEF_STEREO_COUNT>  (110) 
0

>  <PUBCHEM_CACTVS_COMPLEXITY>  (110) 
458

>  <PUBCHEM_CACTVS_HBOND_ACCEPTOR>  (110) 
5

>  <PUBCHEM_CACTVS_HBOND_DONOR>  (110) 
0

>  <PUBCHEM_CACTVS_ROTATABLE_BOND>  (110) 
9

>  <PUBCHEM_CACTVS_SUBSKEYS>  (110) 
AAADcfB7MQAAAAAAAAAAAAAAAAAAAAAAAAA8YIAAAAAAAAABQAAAHwAAAAAADQTBmA4yBoMABACAAiBCAACCCAAgIAAIiAAOjIgNJiKE8RuEMCpkwBGKqAew0JIOIAABAAAAQABAAAIAAACAAAAAAAAAAA==

>  <PUBCHEM_CACTVS_TAUTO_COUNT>  (110) 
1

>  <PUBCHEM_CACTVS_TPSA>  (110) 
24.9

>  <PUBCHEM_COMPONENT_COUNT>  (110) 
1

>  <PUBCHEM_COMPOUND_CANONICALIZED>  (110) 
1

>  <PUBCHEM_COMPOUND_CID>  (110) 
23724050

>  <PUBCHEM_COORDINATE_TYPE>  (110) 
1
5
255

>  <PUBCHEM_EXACT_MASS>  (110) 
400.252607

>  <PUBCHEM_HEAVY_ATOM_COUNT>  (110) 
29

>  <PUBCHEM_ISOTOPIC_ATOM_COUNT>  (110) 
0

>  <PUBCHEM_IUPAC_CAS_NAME>  (110) 
N-[(3,4-dimethoxyphenyl)methyl]-1-[1-[2-(4-fluorophenyl)ethyl]-3-piperidinyl]-N-methylmethanamine

>  <PUBCHEM_IUPAC_INCHI>  (110) 
InChI=1S/C24H33FN2O2/c1-26(16-20-8-11-23(28-2)24(15-20)29-3)17-21-5-4-13-27(18-21)14-12-19-6-9-22(25)10-7-19/h6-11,15,21H,4-5,12-14,16-18H2,1-3H3

>  <PUBCHEM_IUPAC_INCHIKEY>  (110) 
WCRABKVSJIARSP-UHFFFAOYSA-N

>  <PUBCHEM_IUPAC_NAME>  (110) 
N-[(3,4-dimethoxyphenyl)methyl]-1-[1-[2-(4-fluorophenyl)ethyl]piperidin-3-yl]-N-methylmethanamine

>  <PUBCHEM_IUPAC_OPENEYE_NAME>  (110) 
N-[(3,4-dimethoxyphenyl)methyl]-1-[1-[2-(4-fluorophenyl)ethyl]-3-piperidyl]-N-methyl-methanamine

>  <PUBCHEM_IUPAC_SYSTEMATIC_NAME>  (110) 
N-[(3,4-dimethoxyphenyl)methyl]-1-[1-[2-(4-fluorophenyl)ethyl]piperidin-3-yl]-N-methyl-methanamine

>  <PUBCHEM_IUPAC_TRADITIONAL_NAME>  (110) 
[1-[2-(4-fluorophenyl)ethyl]-3-piperidyl]methyl-methyl-veratryl-amine

>  <PUBCHEM_MOLECULAR_FORMULA>  (110) 
C24H33FN2O2

>  <PUBCHEM_MOLECULAR_WEIGHT>  (110) 
400.529423

>  <PUBCHEM_MONOISOTOPIC_WEIGHT>  (110) 
400.252607

>  <PUBCHEM_OPENEYE_CAN_SMILES>  (110) 
CN(CC1CCCN(C1)CCC2=CC=C(C=C2)F)CC3=CC(=C(C=C3)OC)OC

>  <PUBCHEM_OPENEYE_ISO_SMILES>  (110) 
CN(CC1CCCN(C1)CCC2=CC=C(C=C2)F)CC3=CC(=C(C=C3)OC)OC

>  <PUBCHEM_TOTAL_CHARGE>  (110) 
0

>  <PUBCHEM_XLOGP3_AA>  (110) 
4.5

$$$$
Largest isolated from Written by BCL::WriteToMDL,2215920
     RDKit          2D

 40 41  0 40  0  0  0  0  0  0999 V2000
    8.5866    2.4698    0.0000 Cl  0  0  0  0  0  0  0  0  0  0  0  0
    4.3059   -1.7344    0.0000 S   0  0  0  0  0  0  0  0  0  0  0  0
   -3.8478   -2.1408    0.0000 O   0  0  0  0  0  0  0  0  0  0  0  0
   -2.6174    2.9278    0.0000 O   0  0  0  0  0  0  0  0  0  0  0  0
   -2.9208    0.2721    0.0000 N   0  0  0  0  0  0  0  0  0  0  0  0
   -4.9442    1.6123    0.0000 N   0  0  0  0  0  0  0  0  0  0  0  0
   -5.3455    0.1669    0.0000 C   0  0  0  0  0  0  0  0  0  0  0  0
   -4.0949   -0.6614    0.0000 C   0  0  0  0  0  0  0  0  0  0  0  0
   -1.4754   -0.1292    0.0000 C   0  0  0  0  0  0  0  0  0  0  0  0
   -0.0301   -0.5305    0.0000 C   0  0  0  0  0  0  0  0  0  0  0  0
   -3.4456    1.6772    0.0000 C   0  0  0  0  0  0  0  0  0  0  0  0
   -6.0385   -1.1634    0.0000 C   0  0  0  0  0  0  0  0  0  0  0  0
   -6.7410    0.7171    0.0000 C   0  0  0  0  0  0  0  0  0  0  0  0
    1.4152   -0.9318    0.0000 C   0  0  0  0  0  0  0  0  0  0  0  0
    2.8605   -1.3331    0.0000 C   0  0  0  0  0  0  0  0  0  0  0  0
    5.3761   -0.6833    0.0000 C   0  0  0  0  0  0  0  0  0  0  0  0
    6.8214   -1.0846    0.0000 C   0  0  0  0  0  0  0  0  0  0  0  0
    5.0009    0.7690    0.0000 C   0  0  0  0  0  0  0  0  0  0  0  0
    7.8916   -0.0336    0.0000 C   0  0  0  0  0  0  0  0  0  0  0  0
    6.0711    1.8200    0.0000 C   0  0  0  0  0  0  0  0  0  0  0  0
    7.5164    1.4188    0.0000 C   0  0  0  0  0  0  0  0  0  0  0  0
   -1.8767   -1.5745    0.0000 H   0  0  0  0  0  0  0  0  0  0  0  0
   -1.0741    1.3161    0.0000 H   0  0  0  0  0  0  0  0  0  0  0  0
   -5.7276    2.8915    0.0000 H   0  0  0  0  0  0  0  0  0  0  0  0
    0.3712    0.9148    0.0000 H   0  0  0  0  0  0  0  0  0  0  0  0
   -0.4314   -1.9758    0.0000 H   0  0  0  0  0  0  0  0  0  0  0  0
   -4.8026   -2.0134    0.0000 H   0  0  0  0  0  0  0  0  0  0  0  0
   -6.7852   -0.8840    0.0000 H   0  0  0  0  0  0  0  0  0  0  0  0
   -6.7316   -2.4937    0.0000 H   0  0  0  0  0  0  0  0  0  0  0  0
   -7.1216    0.0167    0.0000 H   0  0  0  0  0  0  0  0  0  0  0  0
   -6.3650    2.1692    0.0000 H   0  0  0  0  0  0  0  0  0  0  0  0
   -8.1365    1.2673    0.0000 H   0  0  0  0  0  0  0  0  0  0  0  0
    1.8165    0.5135    0.0000 H   0  0  0  0  0  0  0  0  0  0  0  0
    1.0139   -2.3771    0.0000 H   0  0  0  0  0  0  0  0  0  0  0  0
    2.4593   -2.7784    0.0000 H   0  0  0  0  0  0  0  0  0  0  0  0
    3.2618    0.1122    0.0000 H   0  0  0  0  0  0  0  0  0  0  0  0
    7.1965   -2.5370    0.0000 H   0  0  0  0  0  0  0  0  0  0  0  0
    3.5556    1.1703    0.0000 H   0  0  0  0  0  0  0  0  0  0  0  0
    9.3369   -0.4349    0.0000 H   0  0  0  0  0  0  0  0  0  0  0  0
    5.6960    3.2724    0.0000 H   0  0  0  0  0  0  0  0  0  0  0  0
  1 21  1  0
  2 15  1  0
  2 16  1  0
  3  8  2  0
  4 11  2  0
  5  8  1  0
  5  9  1  0
  5 11  1  0
  6  7  1  0
  6 11  1  0
  6 24  1  0
  7  8  1  0
  7 12  1  0
  7 13  1  0
  9 10  1  0
  9 22  1  0
  9 23  1  0
 10 14  1  0
 10 25  1  0
 10 26  1  0
 12 27  1  0
 12 28  1  0
 12 29  1  0
 13 30  1  0
 13 31  1  0
 13 32  1  0
 14 15  1  0
 14 33  1  0
 14 34  1  0
 15 35  1  0
 15 36  1  0
 16 17  2  0
 16 18  1  0
 17 19  1  0
 17 37  1  0
 18 20  2  0
 18 38  1  0
 19 21  2  0
 19 39  1  0
 20 21  1  0
 20 40  1  0
M  STY  8   1 DAT   2 DAT   3 DAT   4 DAT   5 DAT   6 DAT   7 DAT   8 DAT
M  STY  8   9 DAT  10 DAT  11 DAT  12 DAT  13 DAT  14 DAT  15 DAT  16 DAT
M  STY  8  17 DAT  18 DAT  19 DAT  20 DAT  21 DAT  22 DAT  23 DAT  24 DAT
M  STY  8  25 DAT  26 DAT  27 DAT  28 DAT  29 DAT  30 DAT  31 DAT  32 DAT
M  STY  8  33 DAT  34 DAT  35 DAT  36 DAT  37 DAT  38 DAT  39 DAT  40 DAT
M  SAL   1  1   1
M  SED   1 [#17&h0]
M  SAL   2  1   2
M  SED   2 [#16&h0]
M  SAL   3  1   3
M  SED   3 [#8&h0]
M  SAL   4  1   4
M  SED   4 [#8&h0]
M  SAL   5  1   5
M  SED   5 [#7&h0]
M  SAL   6  1   6
M  SED   6 [#7&h0]
M  SAL   7  1   7
M  SED   7 [#6&h0]
M  SAL   8  1   8
M  SED   8 [#6&h0]
M  SAL   9  1   9
M  SED   9 [#6&h0]
M  SAL  10  1  10
M  SED  10 [#6&h0]
M  SAL  11  1  11
M  SED  11 [#6&h0]
M  SAL  12  1  12
M  SED  12 [#6&h0]
M  SAL  13  1  13
M  SED  13 [#6&h0]
M  SAL  14  1  14
M  SED  14 [#6&h0]
M  SAL  15  1  15
M  SED  15 [#6&h0]
M  SAL  16  1  16
M  SED  16 [#6&h0]
M  SAL  17  1  17
M  SED  17 [#6&h0]
M  SAL  18  1  18
M  SED  18 [#6&h0]
M  SAL  19  1  19
M  SED  19 [#6&h0]
M  SAL  20  1  20
M  SED  20 [#6&h0]
M  SAL  21  1  21
M  SED  21 [#6&h0]
M  SAL  22  1  22
M  SED  22 [#1&h0]
M  SAL  23  1  23
M  SED  23 [#1&h0]
M  SAL  24  1  24
M  SED  24 [#1&h0]
M  SAL  25  1  25
M  SED  25 [#1&h0]
M  SAL  26  1  26
M  SED  26 [#1&h0]
M  SAL  27  1  27
M  SED  27 [#1&h0]
M  SAL  28  1  28
M  SED  28 [#1&h0]
M  SAL  29  1  29
M  SED  29 [#1&h0]
M  SAL  30  1  30
M  SED  30 [#1&h0]
M  SAL  31  1  31
M  SED  31 [#1&h0]
M  SAL  32  1  32
M  SED  32 [#1&h0]
M  SAL  33  1  33
M  SED  33 [#1&h0]
M  SAL  34  1  34
M  SED  34 [#1&h0]
M  SAL  35  1  35
M  SED  35 [#1&h0]
M  SAL  36  1  36
M  SED  36 [#1&h0]
M  SAL  37  1  37
M  SED  37 [#1&h0]
M  SAL  38  1  38
M  SED  38 [#1&h0]
M  SAL  39  1  39
M  SED  39 [#1&h0]
M  SAL  40  1  40
M  SED  40 [#1&h0]
M  END
>  <Activity>  (111) 
0.01

>  <Mapped(file=2032.csv.activities,property=Cached(PUBCHEM_COMPOUND_CID))>  (111) 
100

>  <MatchIndices>  (111) 
84 

>  <PUBCHEM_ATOM_DEF_STEREO_COUNT>  (111) 
0

>  <PUBCHEM_ATOM_UDEF_STEREO_COUNT>  (111) 
0

>  <PUBCHEM_BONDANNOTATIONS>  (111) 
16  17  8
16  18  8
17  19  8
18  20  8
19  21  8
20  21  8

>  <PUBCHEM_BOND_DEF_STEREO_COUNT>  (111) 
0

>  <PUBCHEM_BOND_UDEF_STEREO_COUNT>  (111) 
0

>  <PUBCHEM_CACTVS_COMPLEXITY>  (111) 
395

>  <PUBCHEM_CACTVS_HBOND_ACCEPTOR>  (111) 
3

>  <PUBCHEM_CACTVS_HBOND_DONOR>  (111) 
1

>  <PUBCHEM_CACTVS_ROTATABLE_BOND>  (111) 
6

>  <PUBCHEM_CACTVS_SUBSKEYS>  (111) 
AAADceBzMABEAAAAAAAAAAAAAAAAAWAAAAAwAAAAAAAAAAABAAAAHgYQAAAADIrF0CSzAYPAAAiIACFSEAACAAAgDRAIiBmIAoiIYCKhkzCUIAAolyKoiAcAAAAAAAIAAAAAAAAABAAAAAAAAAAAAAAAAA==

>  <PUBCHEM_CACTVS_TAUTO_COUNT>  (111) 
2

>  <PUBCHEM_CACTVS_TPSA>  (111) 
74.7

>  <PUBCHEM_COMPONENT_COUNT>  (111) 
1

>  <PUBCHEM_COMPOUND_CANONICALIZED>  (111) 
1

>  <PUBCHEM_COMPOUND_CID>  (111) 
2215920

>  <PUBCHEM_COORDINATE_TYPE>  (111) 
1
5
255

>  <PUBCHEM_EXACT_MASS>  (111) 
326.085577

>  <PUBCHEM_HEAVY_ATOM_COUNT>  (111) 
21

>  <PUBCHEM_ISOTOPIC_ATOM_COUNT>  (111) 
0

>  <PUBCHEM_IUPAC_CAS_NAME>  (111) 
3-[4-[(4-chlorophenyl)thio]butyl]-5,5-dimethylimidazolidine-2,4-dione

>  <PUBCHEM_IUPAC_INCHI>  (111) 
InChI=1S/C15H19ClN2O2S/c1-15(2)13(19)18(14(20)17-15)9-3-4-10-21-12-7-5-11(16)6-8-12/h5-8H,3-4,9-10H2,1-2H3,(H,17,20)

>  <PUBCHEM_IUPAC_INCHIKEY>  (111) 
NZRDPGZJCGVICL-UHFFFAOYSA-N

>  <PUBCHEM_IUPAC_NAME>  (111) 
3-[4-(4-chlorophenyl)sulfanylbutyl]-5,5-dimethylimidazolidine-2,4-dione

>  <PUBCHEM_IUPAC_OPENEYE_NAME>  (111) 
3-[4-(4-chlorophenyl)sulfanylbutyl]-5,5-dimethyl-imidazolidine-2,4-dione

>  <PUBCHEM_IUPAC_SYSTEMATIC_NAME>  (111) 
3-[4-(4-chlorophenyl)sulfanylbutyl]-5,5-dimethyl-imidazolidine-2,4-dione

>  <PUBCHEM_IUPAC_TRADITIONAL_NAME>  (111) 
3-[4-[(4-chlorophenyl)thio]butyl]-5,5-dimethyl-hydantoin

>  <PUBCHEM_MOLECULAR_FORMULA>  (111) 
C15H19ClN2O2S

>  <PUBCHEM_MOLECULAR_WEIGHT>  (111) 
326.84156

>  <PUBCHEM_MONOISOTOPIC_WEIGHT>  (111) 
326.085577

>  <PUBCHEM_OPENEYE_CAN_SMILES>  (111) 
CC1(C(=O)N(C(=O)N1)CCCCSC2=CC=C(C=C2)Cl)C

>  <PUBCHEM_OPENEYE_ISO_SMILES>  (111) 
CC1(C(=O)N(C(=O)N1)CCCCSC2=CC=C(C=C2)Cl)C

>  <PUBCHEM_TOTAL_CHARGE>  (111) 
0

>  <PUBCHEM_XLOGP3_AA>  (111) 
3.3

$$$$
Largest isolated from Written by BCL::WriteToMDL,6470043
     RDKit          2D

 43 44  0 43  0  0  0  0  0  0999 V2000
    7.3572    0.2488    0.0000 Cl  0  0  0  0  0  0  0  0  0  0  0  0
   -3.5806    1.8610    0.0000 O   0  0  0  0  0  0  0  0  0  0  0  0
    1.3580    0.3505    0.0000 O   0  0  0  0  0  0  0  0  0  0  0  0
    0.3768   -3.6123    0.0000 O   0  0  0  0  0  0  0  0  0  0  0  0
   -1.6856   -2.1964    0.0000 N   0  0  0  0  0  0  0  0  0  0  0  0
   -3.1413    0.4268    0.0000 C   0  0  0  0  0  0  0  0  0  0  0  0
   -4.3696   -0.4342    0.0000 C   0  0  0  0  0  0  0  0  0  0  0  0
   -2.4134   -0.8848    0.0000 C   0  0  0  0  0  0  0  0  0  0  0  0
   -5.5680    0.4679    0.0000 C   0  0  0  0  0  0  0  0  0  0  0  0
   -5.0804    1.8864    0.0000 C   0  0  0  0  0  0  0  0  0  0  0  0
   -1.1019   -0.1569    0.0000 C   0  0  0  0  0  0  0  0  0  0  0  0
   -0.1858   -2.2218    0.0000 C   0  0  0  0  0  0  0  0  0  0  0  0
    0.5861   -0.9356    0.0000 C   0  0  0  0  0  0  0  0  0  0  0  0
    1.8723   -1.7076    0.0000 C   0  0  0  0  0  0  0  0  0  0  0  0
    2.8578    0.3251    0.0000 C   0  0  0  0  0  0  0  0  0  0  0  0
    3.6297    1.6112    0.0000 C   0  0  0  0  0  0  0  0  0  0  0  0
    3.5857   -0.9865    0.0000 C   0  0  0  0  0  0  0  0  0  0  0  0
    5.1295    1.5858    0.0000 C   0  0  0  0  0  0  0  0  0  0  0  0
    2.9018    2.9228    0.0000 C   0  0  0  0  0  0  0  0  0  0  0  0
    5.0855   -1.0119    0.0000 C   0  0  0  0  0  0  0  0  0  0  0  0
    5.8574    0.2742    0.0000 C   0  0  0  0  0  0  0  0  0  0  0  0
   -1.8427    1.1774    0.0000 H   0  0  0  0  0  0  0  0  0  0  0  0
   -5.3921   -1.5318    0.0000 H   0  0  0  0  0  0  0  0  0  0  0  0
   -3.9235   -1.0949    0.0000 H   0  0  0  0  0  0  0  0  0  0  0  0
   -3.0581   -1.3537    0.0000 H   0  0  0  0  0  0  0  0  0  0  0  0
   -6.9278    1.1011    0.0000 H   0  0  0  0  0  0  0  0  0  0  0  0
   -6.3399   -0.8183    0.0000 H   0  0  0  0  0  0  0  0  0  0  0  0
   -4.8983    3.3753    0.0000 H   0  0  0  0  0  0  0  0  0  0  0  0
   -6.5421    2.2231    0.0000 H   0  0  0  0  0  0  0  0  0  0  0  0
   -0.0783   -1.2534    0.0000 H   0  0  0  0  0  0  0  0  0  0  0  0
   -1.6645    1.2336    0.0000 H   0  0  0  0  0  0  0  0  0  0  0  0
    0.2097    0.5709    0.0000 H   0  0  0  0  0  0  0  0  0  0  0  0
   -2.4575   -3.4825    0.0000 H   0  0  0  0  0  0  0  0  0  0  0  0
   -0.4750    0.1245    0.0000 H   0  0  0  0  0  0  0  0  0  0  0  0
    1.2629   -3.0782    0.0000 H   0  0  0  0  0  0  0  0  0  0  0  0
    2.9324   -0.6464    0.0000 H   0  0  0  0  0  0  0  0  0  0  0  0
    3.0547   -2.6305    0.0000 H   0  0  0  0  0  0  0  0  0  0  0  0
    2.9763   -2.3571    0.0000 H   0  0  0  0  0  0  0  0  0  0  0  0
    5.9014    2.8719    0.0000 H   0  0  0  0  0  0  0  0  0  0  0  0
    1.5903    2.1949    0.0000 H   0  0  0  0  0  0  0  0  0  0  0  0
    4.2134    3.6507    0.0000 H   0  0  0  0  0  0  0  0  0  0  0  0
    2.1740    4.2343    0.0000 H   0  0  0  0  0  0  0  0  0  0  0  0
    5.8134   -2.3235    0.0000 H   0  0  0  0  0  0  0  0  0  0  0  0
  1 21  1  0
  2  6  1  0
  2 10  1  0
  3 13  1  0
  3 15  1  0
  4 12  2  0
  5  8  1  0
  5 12  1  0
  5 33  1  0
  6  7  1  0
  6  8  1  0
  6 22  1  1
  7  9  1  0
  7 23  1  0
  7 24  1  0
  8 11  1  0
  8 25  1  6
  9 10  1  0
  9 26  1  0
  9 27  1  0
 10 28  1  0
 10 29  1  0
 11 30  1  0
 11 31  1  0
 11 32  1  0
 12 13  1  0
 13 14  1  0
 13 34  1  1
 14 35  1  0
 14 36  1  0
 14 37  1  0
 15 16  2  0
 15 17  1  0
 16 18  1  0
 16 19  1  0
 17 20  2  0
 17 38  1  0
 18 21  2  0
 18 39  1  0
 19 40  1  0
 19 41  1  0
 19 42  1  0
 20 21  1  0
 20 43  1  0
M  STY  8   1 DAT   2 DAT   3 DAT   4 DAT   5 DAT   6 DAT   7 DAT   8 DAT
M  STY  8   9 DAT  10 DAT  11 DAT  12 DAT  13 DAT  14 DAT  15 DAT  16 DAT
M  STY  8  17 DAT  18 DAT  19 DAT  20 DAT  21 DAT  22 DAT  23 DAT  24 DAT
M  STY  8  25 DAT  26 DAT  27 DAT  28 DAT  29 DAT  30 DAT  31 DAT  32 DAT
M  STY  8  33 DAT  34 DAT  35 DAT  36 DAT  37 DAT  38 DAT  39 DAT  40 DAT
M  STY  3  41 DAT  42 DAT  43 DAT
M  SAL   1  1   1
M  SED   1 [#17&h0]
M  SAL   2  1   2
M  SED   2 [#8&h0]
M  SAL   3  1   3
M  SED   3 [#8&h0]
M  SAL   4  1   4
M  SED   4 [#8&h0]
M  SAL   5  1   5
M  SED   5 [#7&h0]
M  SAL   6  1   6
M  SED   6 [#6&h0]
M  SAL   7  1   7
M  SED   7 [#6&h0]
M  SAL   8  1   8
M  SED   8 [#6&h0]
M  SAL   9  1   9
M  SED   9 [#6&h0]
M  SAL  10  1  10
M  SED  10 [#6&h0]
M  SAL  11  1  11
M  SED  11 [#6&h0]
M  SAL  12  1  12
M  SED  12 [#6&h0]
M  SAL  13  1  13
M  SED  13 [#6&h0]
M  SAL  14  1  14
M  SED  14 [#6&h0]
M  SAL  15  1  15
M  SED  15 [#6&h0]
M  SAL  16  1  16
M  SED  16 [#6&h0]
M  SAL  17  1  17
M  SED  17 [#6&h0]
M  SAL  18  1  18
M  SED  18 [#6&h0]
M  SAL  19  1  19
M  SED  19 [#6&h0]
M  SAL  20  1  20
M  SED  20 [#6&h0]
M  SAL  21  1  21
M  SED  21 [#6&h0]
M  SAL  22  1  22
M  SED  22 [#1&h0]
M  SAL  23  1  23
M  SED  23 [#1&h0]
M  SAL  24  1  24
M  SED  24 [#1&h0]
M  SAL  25  1  25
M  SED  25 [#1&h0]
M  SAL  26  1  26
M  SED  26 [#1&h0]
M  SAL  27  1  27
M  SED  27 [#1&h0]
M  SAL  28  1  28
M  SED  28 [#1&h0]
M  SAL  29  1  29
M  SED  29 [#1&h0]
M  SAL  30  1  30
M  SED  30 [#1&h0]
M  SAL  31  1  31
M  SED  31 [#1&h0]
M  SAL  32  1  32
M  SED  32 [#1&h0]
M  SAL  33  1  33
M  SED  33 [#1&h0]
M  SAL  34  1  34
M  SED  34 [#1&h0]
M  SAL  35  1  35
M  SED  35 [#1&h0]
M  SAL  36  1  36
M  SED  36 [#1&h0]
M  SAL  37  1  37
M  SED  37 [#1&h0]
M  SAL  38  1  38
M  SED  38 [#1&h0]
M  SAL  39  1  39
M  SED  39 [#1&h0]
M  SAL  40  1  40
M  SED  40 [#1&h0]
M  SAL  41  1  41
M  SED  41 [#1&h0]
M  SAL  42  1  42
M  SED  42 [#1&h0]
M  SAL  43  1  43
M  SED  43 [#1&h0]
M  END
>  <Activity>  (112) 
0.01

>  <Mapped(file=2032.csv.activities,property=Cached(PUBCHEM_COMPOUND_CID))>  (112) 
100

>  <MatchIndices>  (112) 
187 

>  <PUBCHEM_ATOM_DEF_STEREO_COUNT>  (112) 
0

>  <PUBCHEM_ATOM_UDEF_STEREO_COUNT>  (112) 
3

>  <PUBCHEM_BONDANNOTATIONS>  (112) 
13  14  3
15  16  8
15  17  8
16  18  8
17  20  8
18  21  8
20  21  8
6  7  3
8  11  3

>  <PUBCHEM_BOND_DEF_STEREO_COUNT>  (112) 
0

>  <PUBCHEM_BOND_UDEF_STEREO_COUNT>  (112) 
0

>  <PUBCHEM_CACTVS_COMPLEXITY>  (112) 
352

>  <PUBCHEM_CACTVS_HBOND_ACCEPTOR>  (112) 
3

>  <PUBCHEM_CACTVS_HBOND_DONOR>  (112) 
1

>  <PUBCHEM_CACTVS_ROTATABLE_BOND>  (112) 
5

>  <PUBCHEM_CACTVS_SUBSKEYS>  (112) 
AAADceB6MAAEAAAAAAAAAAAAAAAAASAAAAAwAAAAAAAAAAABAAAAHgIQAAAADD7hmCYyBoLABACIAiFSEAICCAAgJQAIiIFOCogOJiKFsx6HOCCk1hGYqAeQ0CMOACAAIAAIAAAAQABAABAAAAAAAAAAAA==

>  <PUBCHEM_CACTVS_TAUTO_COUNT>  (112) 
2

>  <PUBCHEM_CACTVS_TPSA>  (112) 
47.6

>  <PUBCHEM_COMPONENT_COUNT>  (112) 
1

>  <PUBCHEM_COMPOUND_CANONICALIZED>  (112) 
1

>  <PUBCHEM_COMPOUND_CID>  (112) 
6470043

>  <PUBCHEM_COORDINATE_TYPE>  (112) 
1
5
255

>  <PUBCHEM_EXACT_MASS>  (112) 
311.128821

>  <PUBCHEM_HEAVY_ATOM_COUNT>  (112) 
21

>  <PUBCHEM_ISOTOPIC_ATOM_COUNT>  (112) 
0

>  <PUBCHEM_IUPAC_CAS_NAME>  (112) 
2-(4-chloro-2-methylphenoxy)-N-[1-(2-oxolanyl)ethyl]propanamide

>  <PUBCHEM_IUPAC_INCHI>  (112) 
InChI=1S/C16H22ClNO3/c1-10-9-13(17)6-7-14(10)21-12(3)16(19)18-11(2)15-5-4-8-20-15/h6-7,9,11-12,15H,4-5,8H2,1-3H3,(H,18,19)

>  <PUBCHEM_IUPAC_INCHIKEY>  (112) 
XKCOALSLNAEUPI-UHFFFAOYSA-N

>  <PUBCHEM_IUPAC_NAME>  (112) 
2-(4-chloro-2-methylphenoxy)-N-[1-(oxolan-2-yl)ethyl]propanamide

>  <PUBCHEM_IUPAC_OPENEYE_NAME>  (112) 
2-(4-chloro-2-methyl-phenoxy)-N-(1-tetrahydrofuran-2-ylethyl)propanamide

>  <PUBCHEM_IUPAC_SYSTEMATIC_NAME>  (112) 
2-(4-chloranyl-2-methyl-phenoxy)-N-[1-(oxolan-2-yl)ethyl]propanamide

>  <PUBCHEM_IUPAC_TRADITIONAL_NAME>  (112) 
2-(4-chloro-2-methyl-phenoxy)-N-[1-(tetrahydrofuryl)ethyl]propionamide

>  <PUBCHEM_MOLECULAR_FORMULA>  (112) 
C16H22ClNO3

>  <PUBCHEM_MOLECULAR_WEIGHT>  (112) 
311.80378

>  <PUBCHEM_MONOISOTOPIC_WEIGHT>  (112) 
311.128821

>  <PUBCHEM_OPENEYE_CAN_SMILES>  (112) 
CC1=C(C=CC(=C1)Cl)OC(C)C(=O)NC(C)C2CCCO2

>  <PUBCHEM_OPENEYE_ISO_SMILES>  (112) 
CC1=C(C=CC(=C1)Cl)OC(C)C(=O)NC(C)C2CCCO2

>  <PUBCHEM_TOTAL_CHARGE>  (112) 
0

>  <PUBCHEM_XLOGP3_AA>  (112) 
3.5

$$$$
Largest isolated from Written by BCL::WriteToMDL,1478763
     RDKit          2D

 38 39  0 38  0  0  0  0  0  0999 V2000
    1.4019   -0.9008    0.0000 S   0  0  0  0  0  0  0  0  0  0  0  0
   -2.9929    4.1866    0.0000 F   0  0  0  0  0  0  0  0  0  0  0  0
   -0.9030    4.5502    0.0000 F   0  0  0  0  0  0  0  0  0  0  0  0
   -2.7724    2.2110    0.0000 F   0  0  0  0  0  0  0  0  0  0  0  0
    7.2890   -2.0591    0.0000 F   0  0  0  0  0  0  0  0  0  0  0  0
   -2.9167   -0.8396    0.0000 O   0  0  0  0  0  0  0  0  0  0  0  0
   -4.4755    1.2389    0.0000 O   0  0  0  0  0  0  0  0  0  0  0  0
    1.7800    1.7453    0.0000 N   0  0  0  0  0  0  0  0  0  0  0  0
    0.8800    2.9453    0.0000 N   0  0  0  0  0  0  0  0  0  0  0  0
   -0.5166    0.9604    0.0000 C   0  0  0  0  0  0  0  0  0  0  0  0
    0.9168    0.5186    0.0000 C   0  0  0  0  0  0  0  0  0  0  0  0
   -0.5394    2.4602    0.0000 C   0  0  0  0  0  0  0  0  0  0  0  0
   -1.7167    0.0604    0.0000 C   0  0  0  0  0  0  0  0  0  0  0  0
   -1.7661    3.3234    0.0000 C   0  0  0  0  0  0  0  0  0  0  0  0
    3.2798    1.7681    0.0000 C   0  0  0  0  0  0  0  0  0  0  0  0
    2.8737   -1.1904    0.0000 C   0  0  0  0  0  0  0  0  0  0  0  0
   -4.2961   -0.2503    0.0000 C   0  0  0  0  0  0  0  0  0  0  0  0
   -5.4961   -1.1503    0.0000 C   0  0  0  0  0  0  0  0  0  0  0  0
    3.3588   -2.6098    0.0000 C   0  0  0  0  0  0  0  0  0  0  0  0
    3.8604   -0.0606    0.0000 C   0  0  0  0  0  0  0  0  0  0  0  0
    4.8306   -2.8994    0.0000 C   0  0  0  0  0  0  0  0  0  0  0  0
    5.3322   -0.3502    0.0000 C   0  0  0  0  0  0  0  0  0  0  0  0
   -6.6961   -2.0503    0.0000 C   0  0  0  0  0  0  0  0  0  0  0  0
    5.8173   -1.7696    0.0000 C   0  0  0  0  0  0  0  0  0  0  0  0
   -2.7562    1.1418    0.0000 H   0  0  0  0  0  0  0  0  0  0  0  0
   -0.8167   -1.1396    0.0000 H   0  0  0  0  0  0  0  0  0  0  0  0
    3.2571    3.2679    0.0000 H   0  0  0  0  0  0  0  0  0  0  0  0
    3.4844    0.9976    0.0000 H   0  0  0  0  0  0  0  0  0  0  0  0
    4.7796    1.7908    0.0000 H   0  0  0  0  0  0  0  0  0  0  0  0
   -6.3961    0.0497    0.0000 H   0  0  0  0  0  0  0  0  0  0  0  0
   -4.5961   -2.3503    0.0000 H   0  0  0  0  0  0  0  0  0  0  0  0
    2.3721   -3.7396    0.0000 H   0  0  0  0  0  0  0  0  0  0  0  0
    3.7928    0.7337    0.0000 H   0  0  0  0  0  0  0  0  0  0  0  0
    5.3157   -4.3188    0.0000 H   0  0  0  0  0  0  0  0  0  0  0  0
    6.3188    0.7796    0.0000 H   0  0  0  0  0  0  0  0  0  0  0  0
   -5.7961   -3.2503    0.0000 H   0  0  0  0  0  0  0  0  0  0  0  0
   -7.5961   -0.8503    0.0000 H   0  0  0  0  0  0  0  0  0  0  0  0
   -7.8961   -2.9503    0.0000 H   0  0  0  0  0  0  0  0  0  0  0  0
  1 11  1  0
  1 16  1  0
  2 14  1  0
  3 14  1  0
  4 14  1  0
  5 24  1  0
  6 13  1  0
  6 17  1  0
  7 17  2  0
  8  9  1  0
  8 11  1  0
  8 15  1  0
  9 12  2  0
 10 11  2  0
 10 12  1  0
 10 13  1  0
 12 14  1  0
 13 25  1  0
 13 26  1  0
 15 27  1  0
 15 28  1  0
 15 29  1  0
 16 19  2  0
 16 20  1  0
 17 18  1  0
 18 23  1  0
 18 30  1  0
 18 31  1  0
 19 21  1  0
 19 32  1  0
 20 22  2  0
 20 33  1  0
 21 24  2  0
 21 34  1  0
 22 24  1  0
 22 35  1  0
 23 36  1  0
 23 37  1  0
 23 38  1  0
M  STY  8   1 DAT   2 DAT   3 DAT   4 DAT   5 DAT   6 DAT   7 DAT   8 DAT
M  STY  8   9 DAT  10 DAT  11 DAT  12 DAT  13 DAT  14 DAT  15 DAT  16 DAT
M  STY  8  17 DAT  18 DAT  19 DAT  20 DAT  21 DAT  22 DAT  23 DAT  24 DAT
M  STY  8  25 DAT  26 DAT  27 DAT  28 DAT  29 DAT  30 DAT  31 DAT  32 DAT
M  STY  6  33 DAT  34 DAT  35 DAT  36 DAT  37 DAT  38 DAT
M  SAL   1  1   1
M  SED   1 [#16&h0]
M  SAL   2  1   2
M  SED   2 [#9&h0]
M  SAL   3  1   3
M  SED   3 [#9&h0]
M  SAL   4  1   4
M  SED   4 [#9&h0]
M  SAL   5  1   5
M  SED   5 [#9&h0]
M  SAL   6  1   6
M  SED   6 [#8&h0]
M  SAL   7  1   7
M  SED   7 [#8&h0]
M  SAL   8  1   8
M  SED   8 [#7&h0]
M  SAL   9  1   9
M  SED   9 [#7&h0]
M  SAL  10  1  10
M  SED  10 [#6&h0]
M  SAL  11  1  11
M  SED  11 [#6&h0]
M  SAL  12  1  12
M  SED  12 [#6&h0]
M  SAL  13  1  13
M  SED  13 [#6&h0]
M  SAL  14  1  14
M  SED  14 [#6&h0]
M  SAL  15  1  15
M  SED  15 [#6&h0]
M  SAL  16  1  16
M  SED  16 [#6&h0]
M  SAL  17  1  17
M  SED  17 [#6&h0]
M  SAL  18  1  18
M  SED  18 [#6&h0]
M  SAL  19  1  19
M  SED  19 [#6&h0]
M  SAL  20  1  20
M  SED  20 [#6&h0]
M  SAL  21  1  21
M  SED  21 [#6&h0]
M  SAL  22  1  22
M  SED  22 [#6&h0]
M  SAL  23  1  23
M  SED  23 [#6&h0]
M  SAL  24  1  24
M  SED  24 [#6&h0]
M  SAL  25  1  25
M  SED  25 [#1&h0]
M  SAL  26  1  26
M  SED  26 [#1&h0]
M  SAL  27  1  27
M  SED  27 [#1&h0]
M  SAL  28  1  28
M  SED  28 [#1&h0]
M  SAL  29  1  29
M  SED  29 [#1&h0]
M  SAL  30  1  30
M  SED  30 [#1&h0]
M  SAL  31  1  31
M  SED  31 [#1&h0]
M  SAL  32  1  32
M  SED  32 [#1&h0]
M  SAL  33  1  33
M  SED  33 [#1&h0]
M  SAL  34  1  34
M  SED  34 [#1&h0]
M  SAL  35  1  35
M  SED  35 [#1&h0]
M  SAL  36  1  36
M  SED  36 [#1&h0]
M  SAL  37  1  37
M  SED  37 [#1&h0]
M  SAL  38  1  38
M  SED  38 [#1&h0]
M  END
>  <Activity>  (113) 
0.01

>  <Mapped(file=2032.csv.activities,property=Cached(PUBCHEM_COMPOUND_CID))>  (113) 
100

>  <MatchIndices>  (113) 
119 

>  <PUBCHEM_ATOM_DEF_STEREO_COUNT>  (113) 
0

>  <PUBCHEM_ATOM_UDEF_STEREO_COUNT>  (113) 
0

>  <PUBCHEM_BONDANNOTATIONS>  (113) 
10  11  8
10  12  8
16  19  8
16  20  8
19  21  8
20  22  8
21  24  8
22  24  8
8  11  8
8  9  8
9  12  8

>  <PUBCHEM_BOND_DEF_STEREO_COUNT>  (113) 
0

>  <PUBCHEM_BOND_UDEF_STEREO_COUNT>  (113) 
0

>  <PUBCHEM_CACTVS_COMPLEXITY>  (113) 
430

>  <PUBCHEM_CACTVS_HBOND_ACCEPTOR>  (113) 
8

>  <PUBCHEM_CACTVS_HBOND_DONOR>  (113) 
0

>  <PUBCHEM_CACTVS_ROTATABLE_BOND>  (113) 
6

>  <PUBCHEM_CACTVS_SUBSKEYS>  (113) 
AAADccBzMcBAAAAAAAAAAAAAAAAAAWAAAAAwAAAAAAAAAAABwAAAHwQIAAAADAih3h4yiZIIBAiqAyTyTACSFABhiBAY2DkoTJgIJiLg8diGtAxmiABo6AcAAAAIAAAAAAAAAAAAAAAAAAAAAAAAAAAAAA==

>  <PUBCHEM_CACTVS_TAUTO_COUNT>  (113) 
1

>  <PUBCHEM_CACTVS_TPSA>  (113) 
69.4

>  <PUBCHEM_COMPONENT_COUNT>  (113) 
1

>  <PUBCHEM_COMPOUND_CANONICALIZED>  (113) 
1

>  <PUBCHEM_COMPOUND_CID>  (113) 
1478763

>  <PUBCHEM_COORDINATE_TYPE>  (113) 
1
5
255

>  <PUBCHEM_EXACT_MASS>  (113) 
362.071212

>  <PUBCHEM_HEAVY_ATOM_COUNT>  (113) 
24

>  <PUBCHEM_ISOTOPIC_ATOM_COUNT>  (113) 
0

>  <PUBCHEM_IUPAC_CAS_NAME>  (113) 
propanoic acid [5-[(4-fluorophenyl)thio]-1-methyl-3-(trifluoromethyl)-4-pyrazolyl]methyl ester

>  <PUBCHEM_IUPAC_INCHI>  (113) 
InChI=1S/C15H14F4N2O2S/c1-3-12(22)23-8-11-13(15(17,18)19)20-21(2)14(11)24-10-6-4-9(16)5-7-10/h4-7H,3,8H2,1-2H3

>  <PUBCHEM_IUPAC_INCHIKEY>  (113) 
UZISXOAOEYHJHI-UHFFFAOYSA-N

>  <PUBCHEM_IUPAC_NAME>  (113) 
[5-(4-fluorophenyl)sulfanyl-1-methyl-3-(trifluoromethyl)pyrazol-4-yl]methyl propanoate

>  <PUBCHEM_IUPAC_OPENEYE_NAME>  (113) 
[5-(4-fluorophenyl)sulfanyl-1-methyl-3-(trifluoromethyl)pyrazol-4-yl]methyl propanoate

>  <PUBCHEM_IUPAC_SYSTEMATIC_NAME>  (113) 
[5-(4-fluorophenyl)sulfanyl-1-methyl-3-(trifluoromethyl)pyrazol-4-yl]methyl propanoate

>  <PUBCHEM_IUPAC_TRADITIONAL_NAME>  (113) 
propionic acid [5-[(4-fluorophenyl)thio]-1-methyl-3-(trifluoromethyl)pyrazol-4-yl]methyl ester

>  <PUBCHEM_MOLECULAR_FORMULA>  (113) 
C15H14F4N2O2S

>  <PUBCHEM_MOLECULAR_WEIGHT>  (113) 
362.342473

>  <PUBCHEM_MONOISOTOPIC_WEIGHT>  (113) 
362.071212

>  <PUBCHEM_OPENEYE_CAN_SMILES>  (113) 
CCC(=O)OCC1=C(N(N=C1C(F)(F)F)C)SC2=CC=C(C=C2)F

>  <PUBCHEM_OPENEYE_ISO_SMILES>  (113) 
CCC(=O)OCC1=C(N(N=C1C(F)(F)F)C)SC2=CC=C(C=C2)F

>  <PUBCHEM_TOTAL_CHARGE>  (113) 
0

>  <PUBCHEM_XLOGP3_AA>  (113) 
3.8

$$$$
Largest isolated from Written by BCL::WriteToMDL,5664176
     RDKit          2D

 38 39  0 38  0  0  0  0  0  0999 V2000
    7.7380   -0.8679    0.0000 Cl  0  0  0  0  0  0  0  0  0  0  0  0
    2.0449    1.0265    0.0000 S   0  0  0  0  0  0  0  0  0  0  0  0
   -0.1987   -0.9651    0.0000 O   0  0  0  0  0  0  0  0  0  0  0  0
    2.5185    2.4498    0.0000 O   0  0  0  0  0  0  0  0  0  0  0  0
    1.5713   -0.3968    0.0000 O   0  0  0  0  0  0  0  0  0  0  0  0
    0.6216    1.5001    0.0000 N   0  0  0  0  0  0  0  0  0  0  0  0
   -1.3205   -1.9609    0.0000 C   0  0  0  0  0  0  0  0  0  0  0  0
   -0.5002    0.5043    0.0000 C   0  0  0  0  0  0  0  0  0  0  0  0
   -1.9234    0.9779    0.0000 C   0  0  0  0  0  0  0  0  0  0  0  0
    3.4682    0.5529    0.0000 C   0  0  0  0  0  0  0  0  0  0  0  0
   -2.3163   -0.8391    0.0000 C   0  0  0  0  0  0  0  0  0  0  0  0
   -2.4423   -2.9566    0.0000 C   0  0  0  0  0  0  0  0  0  0  0  0
    3.7697   -0.9165    0.0000 C   0  0  0  0  0  0  0  0  0  0  0  0
    4.5900    1.5487    0.0000 C   0  0  0  0  0  0  0  0  0  0  0  0
   -2.2249    2.4473    0.0000 C   0  0  0  0  0  0  0  0  0  0  0  0
   -3.0452   -0.0179    0.0000 C   0  0  0  0  0  0  0  0  0  0  0  0
    5.1929   -1.3901    0.0000 C   0  0  0  0  0  0  0  0  0  0  0  0
    6.0132    1.0751    0.0000 C   0  0  0  0  0  0  0  0  0  0  0  0
   -3.6482    2.9209    0.0000 C   0  0  0  0  0  0  0  0  0  0  0  0
   -4.4685    0.4558    0.0000 C   0  0  0  0  0  0  0  0  0  0  0  0
    6.3147   -0.3943    0.0000 C   0  0  0  0  0  0  0  0  0  0  0  0
   -4.7700    1.9251    0.0000 C   0  0  0  0  0  0  0  0  0  0  0  0
   -0.3247   -3.0826    0.0000 H   0  0  0  0  0  0  0  0  0  0  0  0
   -3.2543   -2.4006    0.0000 H   0  0  0  0  0  0  0  0  0  0  0  0
   -1.4465   -4.0784    0.0000 H   0  0  0  0  0  0  0  0  0  0  0  0
   -3.0523   -1.4924    0.0000 H   0  0  0  0  0  0  0  0  0  0  0  0
   -1.6298    0.1634    0.0000 H   0  0  0  0  0  0  0  0  0  0  0  0
   -2.9740   -0.3887    0.0000 H   0  0  0  0  0  0  0  0  0  0  0  0
   -3.5641   -3.9524    0.0000 H   0  0  0  0  0  0  0  0  0  0  0  0
    2.6479   -1.9123    0.0000 H   0  0  0  0  0  0  0  0  0  0  0  0
    4.2885    3.0181    0.0000 H   0  0  0  0  0  0  0  0  0  0  0  0
   -1.1031    3.4431    0.0000 H   0  0  0  0  0  0  0  0  0  0  0  0
   -3.4690   -1.4567    0.0000 H   0  0  0  0  0  0  0  0  0  0  0  0
    5.4944   -2.8595    0.0000 H   0  0  0  0  0  0  0  0  0  0  0  0
    7.1350    2.0708    0.0000 H   0  0  0  0  0  0  0  0  0  0  0  0
   -3.9496    4.3903    0.0000 H   0  0  0  0  0  0  0  0  0  0  0  0
   -5.5903   -0.5400    0.0000 H   0  0  0  0  0  0  0  0  0  0  0  0
   -6.1932    2.3988    0.0000 H   0  0  0  0  0  0  0  0  0  0  0  0
  1 21  1  0
  2  4  2  0
  2  5  2  0
  2  6  1  0
  2 10  1  0
  3  7  1  0
  3  8  1  0
  6  8  2  0
  7 11  1  0
  7 12  1  0
  7 23  1  0
  8  9  1  0
  9 15  2  0
  9 16  1  0
 10 13  2  0
 10 14  1  0
 11 26  1  0
 11 27  1  0
 11 28  1  0
 12 24  1  0
 12 25  1  0
 12 29  1  0
 13 17  1  0
 13 30  1  0
 14 18  2  0
 14 31  1  0
 15 19  1  0
 15 32  1  0
 16 20  2  0
 16 33  1  0
 17 21  2  0
 17 34  1  0
 18 21  1  0
 18 35  1  0
 19 22  2  0
 19 36  1  0
 20 22  1  0
 20 37  1  0
 22 38  1  0
M  STY  8   1 DAT   2 DAT   3 DAT   4 DAT   5 DAT   6 DAT   7 DAT   8 DAT
M  STY  8   9 DAT  10 DAT  11 DAT  12 DAT  13 DAT  14 DAT  15 DAT  16 DAT
M  STY  8  17 DAT  18 DAT  19 DAT  20 DAT  21 DAT  22 DAT  23 DAT  24 DAT
M  STY  8  25 DAT  26 DAT  27 DAT  28 DAT  29 DAT  30 DAT  31 DAT  32 DAT
M  STY  6  33 DAT  34 DAT  35 DAT  36 DAT  37 DAT  38 DAT
M  SAL   1  1   1
M  SED   1 [#17&h0]
M  SAL   2  1   2
M  SED   2 [#16&h0]
M  SAL   3  1   3
M  SED   3 [#8&h0]
M  SAL   4  1   4
M  SED   4 [#8&h0]
M  SAL   5  1   5
M  SED   5 [#8&h0]
M  SAL   6  1   6
M  SED   6 [#7&h0]
M  SAL   7  1   7
M  SED   7 [#6&h0]
M  SAL   8  1   8
M  SED   8 [#6&h0]
M  SAL   9  1   9
M  SED   9 [#6&h0]
M  SAL  10  1  10
M  SED  10 [#6&h0]
M  SAL  11  1  11
M  SED  11 [#6&h0]
M  SAL  12  1  12
M  SED  12 [#6&h0]
M  SAL  13  1  13
M  SED  13 [#6&h0]
M  SAL  14  1  14
M  SED  14 [#6&h0]
M  SAL  15  1  15
M  SED  15 [#6&h0]
M  SAL  16  1  16
M  SED  16 [#6&h0]
M  SAL  17  1  17
M  SED  17 [#6&h0]
M  SAL  18  1  18
M  SED  18 [#6&h0]
M  SAL  19  1  19
M  SED  19 [#6&h0]
M  SAL  20  1  20
M  SED  20 [#6&h0]
M  SAL  21  1  21
M  SED  21 [#6&h0]
M  SAL  22  1  22
M  SED  22 [#6&h0]
M  SAL  23  1  23
M  SED  23 [#1&h0]
M  SAL  24  1  24
M  SED  24 [#1&h0]
M  SAL  25  1  25
M  SED  25 [#1&h0]
M  SAL  26  1  26
M  SED  26 [#1&h0]
M  SAL  27  1  27
M  SED  27 [#1&h0]
M  SAL  28  1  28
M  SED  28 [#1&h0]
M  SAL  29  1  29
M  SED  29 [#1&h0]
M  SAL  30  1  30
M  SED  30 [#1&h0]
M  SAL  31  1  31
M  SED  31 [#1&h0]
M  SAL  32  1  32
M  SED  32 [#1&h0]
M  SAL  33  1  33
M  SED  33 [#1&h0]
M  SAL  34  1  34
M  SED  34 [#1&h0]
M  SAL  35  1  35
M  SED  35 [#1&h0]
M  SAL  36  1  36
M  SED  36 [#1&h0]
M  SAL  37  1  37
M  SED  37 [#1&h0]
M  SAL  38  1  38
M  SED  38 [#1&h0]
M  END
>  <Activity>  (114) 
0.01

>  <Mapped(file=2032.csv.activities,property=Cached(PUBCHEM_COMPOUND_CID))>  (114) 
100

>  <MatchIndices>  (114) 
164 

>  <PUBCHEM_ATOM_DEF_STEREO_COUNT>  (114) 
0

>  <PUBCHEM_ATOM_UDEF_STEREO_COUNT>  (114) 
0

>  <PUBCHEM_BONDANNOTATIONS>  (114) 
10  13  8
10  14  8
13  17  8
14  18  8
15  19  8
16  20  8
17  21  8
18  21  8
19  22  8
20  22  8
9  15  8
9  16  8

>  <PUBCHEM_BOND_DEF_STEREO_COUNT>  (114) 
1

>  <PUBCHEM_BOND_UDEF_STEREO_COUNT>  (114) 
0

>  <PUBCHEM_CACTVS_COMPLEXITY>  (114) 
470

>  <PUBCHEM_CACTVS_HBOND_ACCEPTOR>  (114) 
4

>  <PUBCHEM_CACTVS_HBOND_DONOR>  (114) 
0

>  <PUBCHEM_CACTVS_ROTATABLE_BOND>  (114) 
5

>  <PUBCHEM_CACTVS_SUBSKEYS>  (114) 
AAADceB6MABEAAAAAAAAAAAAAAAAAAAAAAAwYAAAAAAAAAABQAAAHgYAQAAADBah2CIyAYAABAKgAiBiAHBCABAgBQAIiBggCpgIJqKBMxiCMAAkwAEIqAeAwCAOAAIAAAAAAAAABAAAAAAAAAAAAAAAAA==

>  <PUBCHEM_CACTVS_TAUTO_COUNT>  (114) 
1

>  <PUBCHEM_CACTVS_TPSA>  (114) 
64.1

>  <PUBCHEM_COMPONENT_COUNT>  (114) 
1

>  <PUBCHEM_COMPOUND_CANONICALIZED>  (114) 
1

>  <PUBCHEM_COMPOUND_CID>  (114) 
5664176

>  <PUBCHEM_COORDINATE_TYPE>  (114) 
1
5
255

>  <PUBCHEM_EXACT_MASS>  (114) 
337.053942

>  <PUBCHEM_HEAVY_ATOM_COUNT>  (114) 
22

>  <PUBCHEM_ISOTOPIC_ATOM_COUNT>  (114) 
0

>  <PUBCHEM_IUPAC_CAS_NAME>  (114) 
(Z)-N-(4-chlorophenyl)sulfonylbenzenecarboximidic acid propan-2-yl ester

>  <PUBCHEM_IUPAC_INCHI>  (114) 
InChI=1S/C16H16ClNO3S/c1-12(2)21-16(13-6-4-3-5-7-13)18-22(19,20)15-10-8-14(17)9-11-15/h3-12H,1-2H3/b18-16-

>  <PUBCHEM_IUPAC_INCHIKEY>  (114) 
NGCHBWRQYKQNFO-VLGSPTGOSA-N

>  <PUBCHEM_IUPAC_NAME>  (114) 
propan-2-yl (Z)-N-(4-chlorophenyl)sulfonylbenzenecarboximidate

>  <PUBCHEM_IUPAC_OPENEYE_NAME>  (114) 
isopropyl (Z)-N-(4-chlorophenyl)sulfonylbenzenecarboximidate

>  <PUBCHEM_IUPAC_SYSTEMATIC_NAME>  (114) 
propan-2-yl (Z)-N-(4-chlorophenyl)sulfonylbenzenecarboximidate

>  <PUBCHEM_IUPAC_TRADITIONAL_NAME>  (114) 
(Z)-N-(4-chlorophenyl)sulfonylbenzenecarboximidic acid isopropyl ester

>  <PUBCHEM_MOLECULAR_FORMULA>  (114) 
C16H16ClNO3S

>  <PUBCHEM_MOLECULAR_WEIGHT>  (114) 
337.82114

>  <PUBCHEM_MONOISOTOPIC_WEIGHT>  (114) 
337.053942

>  <PUBCHEM_OPENEYE_CAN_SMILES>  (114) 
CC(C)OC(=NS(=O)(=O)C1=CC=C(C=C1)Cl)C2=CC=CC=C2

>  <PUBCHEM_OPENEYE_ISO_SMILES>  (114) 
CC(C)O/C(=N\S(=O)(=O)C1=CC=C(C=C1)Cl)/C2=CC=CC=C2

>  <PUBCHEM_TOTAL_CHARGE>  (114) 
0

>  <PUBCHEM_XLOGP3_AA>  (114) 
4.6

$$$$
Largest isolated from Written by BCL::WriteToMDL,2998200
     RDKit          2D

 35 37  0 35  0  0  0  0  0  0999 V2000
    6.9416   -1.9228    0.0000 Cl  0  0  0  0  0  0  0  0  0  0  0  0
    1.4484    0.4906    0.0000 S   0  0  0  0  0  0  0  0  0  0  0  0
   -3.5332   -2.7794    0.0000 S   0  0  0  0  0  0  0  0  0  0  0  0
    2.0517    1.8639    0.0000 O   0  0  0  0  0  0  0  0  0  0  0  0
    0.8450   -0.8827    0.0000 O   0  0  0  0  0  0  0  0  0  0  0  0
    0.0751    1.0940    0.0000 N   0  0  0  0  0  0  0  0  0  0  0  0
   -3.7988   -0.3669    0.0000 N   0  0  0  0  0  0  0  0  0  0  0  0
   -6.0334   -1.8338    0.0000 N   0  0  0  0  0  0  0  0  0  0  0  0
   -1.2202    0.3376    0.0000 C   0  0  0  0  0  0  0  0  0  0  0  0
   -2.3399    1.3358    0.0000 C   0  0  0  0  0  0  0  0  0  0  0  0
   -1.7365    2.7091    0.0000 C   0  0  0  0  0  0  0  0  0  0  0  0
   -0.2440    2.5596    0.0000 C   0  0  0  0  0  0  0  0  0  0  0  0
   -2.3300   -0.6716    0.0000 C   0  0  0  0  0  0  0  0  0  0  0  0
    2.8217   -0.1127    0.0000 C   0  0  0  0  0  0  0  0  0  0  0  0
   -2.1659   -2.1626    0.0000 C   0  0  0  0  0  0  0  0  0  0  0  0
    2.9858   -1.6037    0.0000 C   0  0  0  0  0  0  0  0  0  0  0  0
    4.0309    0.7749    0.0000 C   0  0  0  0  0  0  0  0  0  0  0  0
   -4.5424   -1.6696    0.0000 C   0  0  0  0  0  0  0  0  0  0  0  0
    4.3591   -2.2071    0.0000 C   0  0  0  0  0  0  0  0  0  0  0  0
    5.4042    0.1715    0.0000 C   0  0  0  0  0  0  0  0  0  0  0  0
    5.5683   -1.3195    0.0000 C   0  0  0  0  0  0  0  0  0  0  0  0
   -0.3326   -0.8716    0.0000 H   0  0  0  0  0  0  0  0  0  0  0  0
   -3.3698    0.4630    0.0000 H   0  0  0  0  0  0  0  0  0  0  0  0
   -3.6426    2.0794    0.0000 H   0  0  0  0  0  0  0  0  0  0  0  0
   -3.1654    3.1656    0.0000 H   0  0  0  0  0  0  0  0  0  0  0  0
   -1.4319    4.1778    0.0000 H   0  0  0  0  0  0  0  0  0  0  0  0
   -0.2514    4.0596    0.0000 H   0  0  0  0  0  0  0  0  0  0  0  0
    1.2470    2.7238    0.0000 H   0  0  0  0  0  0  0  0  0  0  0  0
   -0.8632   -2.9062    0.0000 H   0  0  0  0  0  0  0  0  0  0  0  0
    1.7766   -2.4914    0.0000 H   0  0  0  0  0  0  0  0  0  0  0  0
    3.8667    2.2659    0.0000 H   0  0  0  0  0  0  0  0  0  0  0  0
    4.5232   -3.6981    0.0000 H   0  0  0  0  0  0  0  0  0  0  0  0
    6.6133    1.0592    0.0000 H   0  0  0  0  0  0  0  0  0  0  0  0
   -6.9210   -0.6246    0.0000 H   0  0  0  0  0  0  0  0  0  0  0  0
   -6.6367   -3.2071    0.0000 H   0  0  0  0  0  0  0  0  0  0  0  0
  1 21  1  0
  2  4  2  0
  2  5  2  0
  2  6  1  0
  2 14  1  0
  3 15  1  0
  3 18  1  0
  6  9  1  0
  6 12  1  0
  7 13  1  0
  7 18  2  0
  8 18  1  0
  8 34  1  0
  8 35  1  0
  9 10  1  0
  9 13  1  0
  9 22  1  1
 10 11  1  0
 10 23  1  0
 10 24  1  0
 11 12  1  0
 11 25  1  0
 11 26  1  0
 12 27  1  0
 12 28  1  0
 13 15  2  0
 14 16  2  0
 14 17  1  0
 15 29  1  0
 16 19  1  0
 16 30  1  0
 17 20  2  0
 17 31  1  0
 19 21  2  0
 19 32  1  0
 20 21  1  0
 20 33  1  0
M  STY  8   1 DAT   2 DAT   3 DAT   4 DAT   5 DAT   6 DAT   7 DAT   8 DAT
M  STY  8   9 DAT  10 DAT  11 DAT  12 DAT  13 DAT  14 DAT  15 DAT  16 DAT
M  STY  8  17 DAT  18 DAT  19 DAT  20 DAT  21 DAT  22 DAT  23 DAT  24 DAT
M  STY  8  25 DAT  26 DAT  27 DAT  28 DAT  29 DAT  30 DAT  31 DAT  32 DAT
M  STY  3  33 DAT  34 DAT  35 DAT
M  SAL   1  1   1
M  SED   1 [#17&h0]
M  SAL   2  1   2
M  SED   2 [#16&h0]
M  SAL   3  1   3
M  SED   3 [#16&h0]
M  SAL   4  1   4
M  SED   4 [#8&h0]
M  SAL   5  1   5
M  SED   5 [#8&h0]
M  SAL   6  1   6
M  SED   6 [#7&h0]
M  SAL   7  1   7
M  SED   7 [#7&h0]
M  SAL   8  1   8
M  SED   8 [#7&h0]
M  SAL   9  1   9
M  SED   9 [#6&h0]
M  SAL  10  1  10
M  SED  10 [#6&h0]
M  SAL  11  1  11
M  SED  11 [#6&h0]
M  SAL  12  1  12
M  SED  12 [#6&h0]
M  SAL  13  1  13
M  SED  13 [#6&h0]
M  SAL  14  1  14
M  SED  14 [#6&h0]
M  SAL  15  1  15
M  SED  15 [#6&h0]
M  SAL  16  1  16
M  SED  16 [#6&h0]
M  SAL  17  1  17
M  SED  17 [#6&h0]
M  SAL  18  1  18
M  SED  18 [#6&h0]
M  SAL  19  1  19
M  SED  19 [#6&h0]
M  SAL  20  1  20
M  SED  20 [#6&h0]
M  SAL  21  1  21
M  SED  21 [#6&h0]
M  SAL  22  1  22
M  SED  22 [#1&h0]
M  SAL  23  1  23
M  SED  23 [#1&h0]
M  SAL  24  1  24
M  SED  24 [#1&h0]
M  SAL  25  1  25
M  SED  25 [#1&h0]
M  SAL  26  1  26
M  SED  26 [#1&h0]
M  SAL  27  1  27
M  SED  27 [#1&h0]
M  SAL  28  1  28
M  SED  28 [#1&h0]
M  SAL  29  1  29
M  SED  29 [#1&h0]
M  SAL  30  1  30
M  SED  30 [#1&h0]
M  SAL  31  1  31
M  SED  31 [#1&h0]
M  SAL  32  1  32
M  SED  32 [#1&h0]
M  SAL  33  1  33
M  SED  33 [#1&h0]
M  SAL  34  1  34
M  SED  34 [#1&h0]
M  SAL  35  1  35
M  SED  35 [#1&h0]
M  END
>  <Activity>  (115) 
0.01

>  <Mapped(file=2032.csv.activities,property=Cached(PUBCHEM_COMPOUND_CID))>  (115) 
100

>  <MatchIndices>  (115) 
172 

>  <PUBCHEM_ATOM_DEF_STEREO_COUNT>  (115) 
0

>  <PUBCHEM_ATOM_UDEF_STEREO_COUNT>  (115) 
1

>  <PUBCHEM_BONDANNOTATIONS>  (115) 
13  15  8
14  16  8
14  17  8
16  19  8
17  20  8
19  21  8
20  21  8
3  15  8
3  18  8
7  13  8
7  18  8
9  13  3

>  <PUBCHEM_BOND_DEF_STEREO_COUNT>  (115) 
0

>  <PUBCHEM_BOND_UDEF_STEREO_COUNT>  (115) 
0

>  <PUBCHEM_CACTVS_COMPLEXITY>  (115) 
463

>  <PUBCHEM_CACTVS_HBOND_ACCEPTOR>  (115) 
4

>  <PUBCHEM_CACTVS_HBOND_DONOR>  (115) 
1

>  <PUBCHEM_CACTVS_ROTATABLE_BOND>  (115) 
3

>  <PUBCHEM_CACTVS_SUBSKEYS>  (115) 
AAADccBzMABkAAAAAAAAAAAAAAAAAWLAAAAwAAAAAAAAAAABwAAAHAYQQAAACCrFViSxkZJIEAqkASRiZHDC8LlhDzkIiBw4JoiIYCKhkxCUIAgggAKIiCcQAAAAAAIAAAAAAAAABAAAAAAAAAAAAAAAAA==

>  <PUBCHEM_CACTVS_TAUTO_COUNT>  (115) 
2

>  <PUBCHEM_CACTVS_TPSA>  (115) 
113

>  <PUBCHEM_COMPONENT_COUNT>  (115) 
1

>  <PUBCHEM_COMPOUND_CANONICALIZED>  (115) 
1

>  <PUBCHEM_COMPOUND_CID>  (115) 
2998200

>  <PUBCHEM_COORDINATE_TYPE>  (115) 
1
5
255

>  <PUBCHEM_EXACT_MASS>  (115) 
343.021596

>  <PUBCHEM_HEAVY_ATOM_COUNT>  (115) 
21

>  <PUBCHEM_ISOTOPIC_ATOM_COUNT>  (115) 
0

>  <PUBCHEM_IUPAC_CAS_NAME>  (115) 
4-[1-(4-chlorophenyl)sulfonyl-2-pyrrolidinyl]-2-thiazolamine

>  <PUBCHEM_IUPAC_INCHI>  (115) 
InChI=1S/C13H14ClN3O2S2/c14-9-3-5-10(6-4-9)21(18,19)17-7-1-2-12(17)11-8-20-13(15)16-11/h3-6,8,12H,1-2,7H2,(H2,15,16)

>  <PUBCHEM_IUPAC_INCHIKEY>  (115) 
VCWXNYKJWJLNSS-UHFFFAOYSA-N

>  <PUBCHEM_IUPAC_NAME>  (115) 
4-[1-(4-chlorophenyl)sulfonylpyrrolidin-2-yl]-1,3-thiazol-2-amine

>  <PUBCHEM_IUPAC_OPENEYE_NAME>  (115) 
4-[1-(4-chlorophenyl)sulfonylpyrrolidin-2-yl]thiazol-2-amine

>  <PUBCHEM_IUPAC_SYSTEMATIC_NAME>  (115) 
4-[1-(4-chlorophenyl)sulfonylpyrrolidin-2-yl]-1,3-thiazol-2-amine

>  <PUBCHEM_IUPAC_TRADITIONAL_NAME>  (115) 
[4-[1-(4-chlorophenyl)sulfonylpyrrolidin-2-yl]thiazol-2-yl]amine

>  <PUBCHEM_MOLECULAR_FORMULA>  (115) 
C13H14ClN3O2S2

>  <PUBCHEM_MOLECULAR_WEIGHT>  (115) 
343.85216

>  <PUBCHEM_MONOISOTOPIC_WEIGHT>  (115) 
343.021596

>  <PUBCHEM_OPENEYE_CAN_SMILES>  (115) 
C1CC(N(C1)S(=O)(=O)C2=CC=C(C=C2)Cl)C3=CSC(=N3)N

>  <PUBCHEM_OPENEYE_ISO_SMILES>  (115) 
C1CC(N(C1)S(=O)(=O)C2=CC=C(C=C2)Cl)C3=CSC(=N3)N

>  <PUBCHEM_TOTAL_CHARGE>  (115) 
0

>  <PUBCHEM_XLOGP3_AA>  (115) 
2.4

$$$$
Largest isolated from Written by BCL::WriteToMDL,693414
     RDKit          2D

 34 35  0 34  0  0  0  0  0  0999 V2000
    1.5920    3.6136    0.0000 Cl  0  0  0  0  0  0  0  0  0  0  0  0
   -1.5146   -0.8135    0.0000 S   0  0  0  0  0  0  0  0  0  0  0  0
   -1.0273    0.6051    0.0000 O   0  0  0  0  0  0  0  0  0  0  0  0
   -2.0018   -2.2322    0.0000 O   0  0  0  0  0  0  0  0  0  0  0  0
    4.4293    2.6391    0.0000 O   0  0  0  0  0  0  0  0  0  0  0  0
   -0.0959   -1.3008    0.0000 N   0  0  0  0  0  0  0  0  0  0  0  0
    1.0354   -0.3158    0.0000 C   0  0  0  0  0  0  0  0  0  0  0  0
    2.4541   -0.8031    0.0000 C   0  0  0  0  0  0  0  0  0  0  0  0
    3.5854    0.1819    0.0000 C   0  0  0  0  0  0  0  0  0  0  0  0
    0.7480    1.1564    0.0000 C   0  0  0  0  0  0  0  0  0  0  0  0
    3.2980    1.6541    0.0000 C   0  0  0  0  0  0  0  0  0  0  0  0
   -2.9332   -0.3263    0.0000 C   0  0  0  0  0  0  0  0  0  0  0  0
    2.7414   -2.2753    0.0000 C   0  0  0  0  0  0  0  0  0  0  0  0
    1.8793    2.1414    0.0000 C   0  0  0  0  0  0  0  0  0  0  0  0
    5.0040   -0.3053    0.0000 C   0  0  0  0  0  0  0  0  0  0  0  0
   -4.0645   -1.3112    0.0000 C   0  0  0  0  0  0  0  0  0  0  0  0
   -3.2206    1.1459    0.0000 C   0  0  0  0  0  0  0  0  0  0  0  0
   -5.4832   -0.8240    0.0000 C   0  0  0  0  0  0  0  0  0  0  0  0
   -4.6392    1.6332    0.0000 C   0  0  0  0  0  0  0  0  0  0  0  0
   -5.7705    0.6482    0.0000 C   0  0  0  0  0  0  0  0  0  0  0  0
    0.1915   -2.7730    0.0000 H   0  0  0  0  0  0  0  0  0  0  0  0
   -0.6706    1.6437    0.0000 H   0  0  0  0  0  0  0  0  0  0  0  0
    1.2692   -2.5626    0.0000 H   0  0  0  0  0  0  0  0  0  0  0  0
    3.9534   -2.1896    0.0000 H   0  0  0  0  0  0  0  0  0  0  0  0
    3.0288   -3.7475    0.0000 H   0  0  0  0  0  0  0  0  0  0  0  0
    4.7524   -1.4940    0.0000 H   0  0  0  0  0  0  0  0  0  0  0  0
    5.4913    1.1133    0.0000 H   0  0  0  0  0  0  0  0  0  0  0  0
    6.4227   -0.7926    0.0000 H   0  0  0  0  0  0  0  0  0  0  0  0
   -3.7772   -2.7835    0.0000 H   0  0  0  0  0  0  0  0  0  0  0  0
   -2.0893    2.1309    0.0000 H   0  0  0  0  0  0  0  0  0  0  0  0
   -6.6145   -1.8090    0.0000 H   0  0  0  0  0  0  0  0  0  0  0  0
   -4.9266    3.1054    0.0000 H   0  0  0  0  0  0  0  0  0  0  0  0
   -7.1892    1.1355    0.0000 H   0  0  0  0  0  0  0  0  0  0  0  0
    4.1419    4.1113    0.0000 H   0  0  0  0  0  0  0  0  0  0  0  0
  1 14  1  0
  2  3  2  0
  2  4  2  0
  2  6  1  0
  2 12  1  0
  5 11  1  0
  5 34  1  0
  6  7  1  0
  6 21  1  0
  7  8  2  0
  7 10  1  0
  8  9  1  0
  8 13  1  0
  9 11  2  0
  9 15  1  0
 10 14  2  0
 10 22  1  0
 11 14  1  0
 12 16  2  0
 12 17  1  0
 13 23  1  0
 13 24  1  0
 13 25  1  0
 15 26  1  0
 15 27  1  0
 15 28  1  0
 16 18  1  0
 16 29  1  0
 17 19  2  0
 17 30  1  0
 18 20  2  0
 18 31  1  0
 19 20  1  0
 19 32  1  0
 20 33  1  0
M  STY  8   1 DAT   2 DAT   3 DAT   4 DAT   5 DAT   6 DAT   7 DAT   8 DAT
M  STY  8   9 DAT  10 DAT  11 DAT  12 DAT  13 DAT  14 DAT  15 DAT  16 DAT
M  STY  8  17 DAT  18 DAT  19 DAT  20 DAT  21 DAT  22 DAT  23 DAT  24 DAT
M  STY  8  25 DAT  26 DAT  27 DAT  28 DAT  29 DAT  30 DAT  31 DAT  32 DAT
M  STY  2  33 DAT  34 DAT
M  SAL   1  1   1
M  SED   1 [#17&h0]
M  SAL   2  1   2
M  SED   2 [#16&h0]
M  SAL   3  1   3
M  SED   3 [#8&h0]
M  SAL   4  1   4
M  SED   4 [#8&h0]
M  SAL   5  1   5
M  SED   5 [#8&h0]
M  SAL   6  1   6
M  SED   6 [#7&h0]
M  SAL   7  1   7
M  SED   7 [#6&h0]
M  SAL   8  1   8
M  SED   8 [#6&h0]
M  SAL   9  1   9
M  SED   9 [#6&h0]
M  SAL  10  1  10
M  SED  10 [#6&h0]
M  SAL  11  1  11
M  SED  11 [#6&h0]
M  SAL  12  1  12
M  SED  12 [#6&h0]
M  SAL  13  1  13
M  SED  13 [#6&h0]
M  SAL  14  1  14
M  SED  14 [#6&h0]
M  SAL  15  1  15
M  SED  15 [#6&h0]
M  SAL  16  1  16
M  SED  16 [#6&h0]
M  SAL  17  1  17
M  SED  17 [#6&h0]
M  SAL  18  1  18
M  SED  18 [#6&h0]
M  SAL  19  1  19
M  SED  19 [#6&h0]
M  SAL  20  1  20
M  SED  20 [#6&h0]
M  SAL  21  1  21
M  SED  21 [#1&h0]
M  SAL  22  1  22
M  SED  22 [#1&h0]
M  SAL  23  1  23
M  SED  23 [#1&h0]
M  SAL  24  1  24
M  SED  24 [#1&h0]
M  SAL  25  1  25
M  SED  25 [#1&h0]
M  SAL  26  1  26
M  SED  26 [#1&h0]
M  SAL  27  1  27
M  SED  27 [#1&h0]
M  SAL  28  1  28
M  SED  28 [#1&h0]
M  SAL  29  1  29
M  SED  29 [#1&h0]
M  SAL  30  1  30
M  SED  30 [#1&h0]
M  SAL  31  1  31
M  SED  31 [#1&h0]
M  SAL  32  1  32
M  SED  32 [#1&h0]
M  SAL  33  1  33
M  SED  33 [#1&h0]
M  SAL  34  1  34
M  SED  34 [#1&h0]
M  END
>  <Activity>  (116) 
0.01

>  <Mapped(file=2032.csv.activities,property=Cached(PUBCHEM_COMPOUND_CID))>  (116) 
100

>  <MatchIndices>  (116) 
215 

>  <PUBCHEM_ATOM_DEF_STEREO_COUNT>  (116) 
0

>  <PUBCHEM_ATOM_UDEF_STEREO_COUNT>  (116) 
0

>  <PUBCHEM_BONDANNOTATIONS>  (116) 
10  14  8
11  14  8
12  16  8
12  17  8
16  18  8
17  19  8
18  20  8
19  20  8
7  10  8
7  8  8
8  9  8
9  11  8

>  <PUBCHEM_BOND_DEF_STEREO_COUNT>  (116) 
0

>  <PUBCHEM_BOND_UDEF_STEREO_COUNT>  (116) 
0

>  <PUBCHEM_CACTVS_COMPLEXITY>  (116) 
417

>  <PUBCHEM_CACTVS_HBOND_ACCEPTOR>  (116) 
4

>  <PUBCHEM_CACTVS_HBOND_DONOR>  (116) 
2

>  <PUBCHEM_CACTVS_ROTATABLE_BOND>  (116) 
3

>  <PUBCHEM_CACTVS_SUBSKEYS>  (116) 
AAADccByMABEAAAAAAAAAAAAAAAAAAAAAAAwYAAAAAAAAAABQAAAHgYQSAAADA6B2CAyx4BAAgKAAiRCQHDCABAgJ0AIiBgEb4gIJiKDk5OAcABk0BEI2AewwLAOhEABYAIaCAAIgALABDQQAAAAAAAAAA==

>  <PUBCHEM_CACTVS_TAUTO_COUNT>  (116) 
6

>  <PUBCHEM_CACTVS_TPSA>  (116) 
74.8

>  <PUBCHEM_COMPONENT_COUNT>  (116) 
1

>  <PUBCHEM_COMPOUND_CANONICALIZED>  (116) 
1

>  <PUBCHEM_COMPOUND_CID>  (116) 
693414

>  <PUBCHEM_COORDINATE_TYPE>  (116) 
1
5
255

>  <PUBCHEM_EXACT_MASS>  (116) 
311.038292

>  <PUBCHEM_HEAVY_ATOM_COUNT>  (116) 
20

>  <PUBCHEM_ISOTOPIC_ATOM_COUNT>  (116) 
0

>  <PUBCHEM_IUPAC_CAS_NAME>  (116) 
N-(5-chloro-4-hydroxy-2,3-dimethylphenyl)benzenesulfonamide

>  <PUBCHEM_IUPAC_INCHI>  (116) 
InChI=1S/C14H14ClNO3S/c1-9-10(2)14(17)12(15)8-13(9)16-20(18,19)11-6-4-3-5-7-11/h3-8,16-17H,1-2H3

>  <PUBCHEM_IUPAC_INCHIKEY>  (116) 
LEILQUVZVYXNRY-UHFFFAOYSA-N

>  <PUBCHEM_IUPAC_NAME>  (116) 
N-(5-chloro-4-hydroxy-2,3-dimethylphenyl)benzenesulfonamide

>  <PUBCHEM_IUPAC_OPENEYE_NAME>  (116) 
N-(5-chloro-4-hydroxy-2,3-dimethyl-phenyl)benzenesulfonamide

>  <PUBCHEM_IUPAC_SYSTEMATIC_NAME>  (116) 
N-(5-chloranyl-2,3-dimethyl-4-oxidanyl-phenyl)benzenesulfonamide

>  <PUBCHEM_IUPAC_TRADITIONAL_NAME>  (116) 
N-(5-chloro-4-hydroxy-2,3-dimethyl-phenyl)benzenesulfonamide

>  <PUBCHEM_MOLECULAR_FORMULA>  (116) 
C14H14ClNO3S

>  <PUBCHEM_MOLECULAR_WEIGHT>  (116) 
311.78386

>  <PUBCHEM_MONOISOTOPIC_WEIGHT>  (116) 
311.038292

>  <PUBCHEM_OPENEYE_CAN_SMILES>  (116) 
CC1=C(C(=C(C=C1NS(=O)(=O)C2=CC=CC=C2)Cl)O)C

>  <PUBCHEM_OPENEYE_ISO_SMILES>  (116) 
CC1=C(C(=C(C=C1NS(=O)(=O)C2=CC=CC=C2)Cl)O)C

>  <PUBCHEM_TOTAL_CHARGE>  (116) 
0

>  <PUBCHEM_XLOGP3_AA>  (116) 
3.4

$$$$
Largest isolated from Written by BCL::WriteToMDL,24819210
     RDKit          2D

 45 47  0 45  0  0  0  0  0  0999 V2000
    8.1122    0.5097    0.0000 S   0  0  0  0  0  0  0  0  0  0  0  0
   -9.0494    1.3040    0.0000 F   0  0  0  0  0  0  0  0  0  0  0  0
    4.0618    0.8757    0.0000 O   0  0  0  0  0  0  0  0  0  0  0  0
    1.2310    2.2178    0.0000 O   0  0  0  0  0  0  0  0  0  0  0  0
    0.1825   -0.1593    0.0000 N   0  0  0  0  0  0  0  0  0  0  0  0
   -3.0626    0.9061    0.0000 N   0  0  0  0  0  0  0  0  0  0  0  0
   -2.4004   -0.4398    0.0000 C   0  0  0  0  0  0  0  0  0  0  0  0
   -2.2385   -1.9310    0.0000 C   0  0  0  0  0  0  0  0  0  0  0  0
   -1.1900    0.4461    0.0000 C   0  0  0  0  0  0  0  0  0  0  0  0
   -0.8661   -2.5364    0.0000 C   0  0  0  0  0  0  0  0  0  0  0  0
    0.3444   -1.6505    0.0000 C   0  0  0  0  0  0  0  0  0  0  0  0
    1.3929    0.7266    0.0000 C   0  0  0  0  0  0  0  0  0  0  0  0
   -4.5593    1.0056    0.0000 C   0  0  0  0  0  0  0  0  0  0  0  0
    2.7653    0.1212    0.0000 C   0  0  0  0  0  0  0  0  0  0  0  0
   -5.2216    2.3515    0.0000 C   0  0  0  0  0  0  0  0  0  0  0  0
   -5.3938   -0.2409    0.0000 C   0  0  0  0  0  0  0  0  0  0  0  0
    3.0823   -1.3449    0.0000 C   0  0  0  0  0  0  0  0  0  0  0  0
    5.1800   -0.1241    0.0000 C   0  0  0  0  0  0  0  0  0  0  0  0
    4.5746   -1.4965    0.0000 C   0  0  0  0  0  0  0  0  0  0  0  0
   -6.7183    2.4510    0.0000 C   0  0  0  0  0  0  0  0  0  0  0  0
   -6.8905   -0.1414    0.0000 C   0  0  0  0  0  0  0  0  0  0  0  0
   -7.5527    1.2045    0.0000 C   0  0  0  0  0  0  0  0  0  0  0  0
    6.6461    0.1928    0.0000 C   0  0  0  0  0  0  0  0  0  0  0  0
    8.5708    1.9379    0.0000 C   0  0  0  0  0  0  0  0  0  0  0  0
   -3.8409   -0.8582    0.0000 H   0  0  0  0  0  0  0  0  0  0  0  0
   -2.5963   -3.3877    0.0000 H   0  0  0  0  0  0  0  0  0  0  0  0
   -3.7352   -1.8315    0.0000 H   0  0  0  0  0  0  0  0  0  0  0  0
   -1.8119    1.2088    0.0000 H   0  0  0  0  0  0  0  0  0  0  0  0
   -0.3555    1.6925    0.0000 H   0  0  0  0  0  0  0  0  0  0  0  0
    0.2165   -3.5746    0.0000 H   0  0  0  0  0  0  0  0  0  0  0  0
   -1.7006   -3.7828    0.0000 H   0  0  0  0  0  0  0  0  0  0  0  0
    1.7849   -1.2321    0.0000 H   0  0  0  0  0  0  0  0  0  0  0  0
    1.0066   -2.9964    0.0000 H   0  0  0  0  0  0  0  0  0  0  0  0
   -2.6189    1.7846    0.0000 H   0  0  0  0  0  0  0  0  0  0  0  0
   -4.3871    3.5980    0.0000 H   0  0  0  0  0  0  0  0  0  0  0  0
   -4.7316   -1.5868    0.0000 H   0  0  0  0  0  0  0  0  0  0  0  0
    2.0824   -2.4631    0.0000 H   0  0  0  0  0  0  0  0  0  0  0  0
    5.3291   -2.7930    0.0000 H   0  0  0  0  0  0  0  0  0  0  0  0
   -7.3805    3.7969    0.0000 H   0  0  0  0  0  0  0  0  0  0  0  0
   -7.7250   -1.3878    0.0000 H   0  0  0  0  0  0  0  0  0  0  0  0
    6.3292    1.6589    0.0000 H   0  0  0  0  0  0  0  0  0  0  0  0
    6.9630   -1.2733    0.0000 H   0  0  0  0  0  0  0  0  0  0  0  0
    9.9990    1.4793    0.0000 H   0  0  0  0  0  0  0  0  0  0  0  0
    7.1426    2.3965    0.0000 H   0  0  0  0  0  0  0  0  0  0  0  0
    9.0294    3.3661    0.0000 H   0  0  0  0  0  0  0  0  0  0  0  0
  1 23  1  0
  1 24  1  0
  2 22  1  0
  3 14  1  0
  3 18  1  0
  4 12  2  0
  5  9  1  0
  5 11  1  0
  5 12  1  0
  6  7  1  0
  6 13  1  0
  6 34  1  0
  7  8  1  0
  7  9  1  0
  7 25  1  1
  8 10  1  0
  8 26  1  0
  8 27  1  0
  9 28  1  0
  9 29  1  0
 10 11  1  0
 10 30  1  0
 10 31  1  0
 11 32  1  0
 11 33  1  0
 12 14  1  0
 13 15  2  0
 13 16  1  0
 14 17  2  0
 15 20  1  0
 15 35  1  0
 16 21  2  0
 16 36  1  0
 17 19  1  0
 17 37  1  0
 18 19  2  0
 18 23  1  0
 19 38  1  0
 20 22  2  0
 20 39  1  0
 21 22  1  0
 21 40  1  0
 23 41  1  0
 23 42  1  0
 24 43  1  0
 24 44  1  0
 24 45  1  0
M  STY  8   1 DAT   2 DAT   3 DAT   4 DAT   5 DAT   6 DAT   7 DAT   8 DAT
M  STY  8   9 DAT  10 DAT  11 DAT  12 DAT  13 DAT  14 DAT  15 DAT  16 DAT
M  STY  8  17 DAT  18 DAT  19 DAT  20 DAT  21 DAT  22 DAT  23 DAT  24 DAT
M  STY  8  25 DAT  26 DAT  27 DAT  28 DAT  29 DAT  30 DAT  31 DAT  32 DAT
M  STY  8  33 DAT  34 DAT  35 DAT  36 DAT  37 DAT  38 DAT  39 DAT  40 DAT
M  STY  5  41 DAT  42 DAT  43 DAT  44 DAT  45 DAT
M  SAL   1  1   1
M  SED   1 [#16&h0]
M  SAL   2  1   2
M  SED   2 [#9&h0]
M  SAL   3  1   3
M  SED   3 [#8&h0]
M  SAL   4  1   4
M  SED   4 [#8&h0]
M  SAL   5  1   5
M  SED   5 [#7&h0]
M  SAL   6  1   6
M  SED   6 [#7&h0]
M  SAL   7  1   7
M  SED   7 [#6&h0]
M  SAL   8  1   8
M  SED   8 [#6&h0]
M  SAL   9  1   9
M  SED   9 [#6&h0]
M  SAL  10  1  10
M  SED  10 [#6&h0]
M  SAL  11  1  11
M  SED  11 [#6&h0]
M  SAL  12  1  12
M  SED  12 [#6&h0]
M  SAL  13  1  13
M  SED  13 [#6&h0]
M  SAL  14  1  14
M  SED  14 [#6&h0]
M  SAL  15  1  15
M  SED  15 [#6&h0]
M  SAL  16  1  16
M  SED  16 [#6&h0]
M  SAL  17  1  17
M  SED  17 [#6&h0]
M  SAL  18  1  18
M  SED  18 [#6&h0]
M  SAL  19  1  19
M  SED  19 [#6&h0]
M  SAL  20  1  20
M  SED  20 [#6&h0]
M  SAL  21  1  21
M  SED  21 [#6&h0]
M  SAL  22  1  22
M  SED  22 [#6&h0]
M  SAL  23  1  23
M  SED  23 [#6&h0]
M  SAL  24  1  24
M  SED  24 [#6&h0]
M  SAL  25  1  25
M  SED  25 [#1&h0]
M  SAL  26  1  26
M  SED  26 [#1&h0]
M  SAL  27  1  27
M  SED  27 [#1&h0]
M  SAL  28  1  28
M  SED  28 [#1&h0]
M  SAL  29  1  29
M  SED  29 [#1&h0]
M  SAL  30  1  30
M  SED  30 [#1&h0]
M  SAL  31  1  31
M  SED  31 [#1&h0]
M  SAL  32  1  32
M  SED  32 [#1&h0]
M  SAL  33  1  33
M  SED  33 [#1&h0]
M  SAL  34  1  34
M  SED  34 [#1&h0]
M  SAL  35  1  35
M  SED  35 [#1&h0]
M  SAL  36  1  36
M  SED  36 [#1&h0]
M  SAL  37  1  37
M  SED  37 [#1&h0]
M  SAL  38  1  38
M  SED  38 [#1&h0]
M  SAL  39  1  39
M  SED  39 [#1&h0]
M  SAL  40  1  40
M  SED  40 [#1&h0]
M  SAL  41  1  41
M  SED  41 [#1&h0]
M  SAL  42  1  42
M  SED  42 [#1&h0]
M  SAL  43  1  43
M  SED  43 [#1&h0]
M  SAL  44  1  44
M  SED  44 [#1&h0]
M  SAL  45  1  45
M  SED  45 [#1&h0]
M  END
>  <Activity>  (117) 
0.01

>  <Mapped(file=2032.csv.activities,property=Cached(PUBCHEM_COMPOUND_CID))>  (117) 
100

>  <MatchIndices>  (117) 
126 

>  <PUBCHEM_ATOM_DEF_STEREO_COUNT>  (117) 
0

>  <PUBCHEM_ATOM_UDEF_STEREO_COUNT>  (117) 
1

>  <PUBCHEM_BONDANNOTATIONS>  (117) 
13  15  8
13  16  8
14  17  8
15  20  8
16  21  8
17  19  8
18  19  8
20  22  8
21  22  8
3  14  8
3  18  8
7  6  3

>  <PUBCHEM_BOND_DEF_STEREO_COUNT>  (117) 
0

>  <PUBCHEM_BOND_UDEF_STEREO_COUNT>  (117) 
0

>  <PUBCHEM_CACTVS_COMPLEXITY>  (117) 
418

>  <PUBCHEM_CACTVS_HBOND_ACCEPTOR>  (117) 
5

>  <PUBCHEM_CACTVS_HBOND_DONOR>  (117) 
1

>  <PUBCHEM_CACTVS_ROTATABLE_BOND>  (117) 
5

>  <PUBCHEM_CACTVS_SUBSKEYS>  (117) 
AAADceB7MQBAAAAAAAAAAAAAAAAAASAAAAA8QAAAAAAAAAABwAAAHwQQAAAACCzF0AyyxIPABEiIAKVSUAKCCAAlIhAIiIHObMgOZjLktb+XOSjk1hHY6YeYHwJgAAAAAAAAAAAAAAAAAAAAAAAAAAAAAA==

>  <PUBCHEM_CACTVS_TAUTO_COUNT>  (117) 
1

>  <PUBCHEM_CACTVS_TPSA>  (117) 
70.8

>  <PUBCHEM_COMPONENT_COUNT>  (117) 
1

>  <PUBCHEM_COMPOUND_CANONICALIZED>  (117) 
1

>  <PUBCHEM_COMPOUND_CID>  (117) 
24819210

>  <PUBCHEM_COORDINATE_TYPE>  (117) 
1
5
255

>  <PUBCHEM_EXACT_MASS>  (117) 
348.130777

>  <PUBCHEM_HEAVY_ATOM_COUNT>  (117) 
24

>  <PUBCHEM_ISOTOPIC_ATOM_COUNT>  (117) 
0

>  <PUBCHEM_IUPAC_CAS_NAME>  (117) 
[3-(4-fluoroanilino)-1-piperidinyl]-[5-[(methylthio)methyl]-2-furanyl]methanone

>  <PUBCHEM_IUPAC_INCHI>  (117) 
InChI=1S/C18H21FN2O2S/c1-24-12-16-8-9-17(23-16)18(22)21-10-2-3-15(11-21)20-14-6-4-13(19)5-7-14/h4-9,15,20H,2-3,10-12H2,1H3

>  <PUBCHEM_IUPAC_INCHIKEY>  (117) 
AZWURYSNVASDSZ-UHFFFAOYSA-N

>  <PUBCHEM_IUPAC_NAME>  (117) 
[3-(4-fluoroanilino)piperidin-1-yl]-[5-(methylsulfanylmethyl)furan-2-yl]methanone

>  <PUBCHEM_IUPAC_OPENEYE_NAME>  (117) 
[3-(4-fluoroanilino)-1-piperidyl]-[5-(methylsulfanylmethyl)-2-furyl]methanone

>  <PUBCHEM_IUPAC_SYSTEMATIC_NAME>  (117) 
[3-[(4-fluorophenyl)amino]piperidin-1-yl]-[5-(methylsulfanylmethyl)furan-2-yl]methanone

>  <PUBCHEM_IUPAC_TRADITIONAL_NAME>  (117) 
[3-(4-fluoroanilino)piperidino]-[5-[(methylthio)methyl]-2-furyl]methanone

>  <PUBCHEM_MOLECULAR_FORMULA>  (117) 
C18H21FN2O2S

>  <PUBCHEM_MOLECULAR_WEIGHT>  (117) 
348.434943

>  <PUBCHEM_MONOISOTOPIC_WEIGHT>  (117) 
348.130777

>  <PUBCHEM_OPENEYE_CAN_SMILES>  (117) 
CSCC1=CC=C(O1)C(=O)N2CCCC(C2)NC3=CC=C(C=C3)F

>  <PUBCHEM_OPENEYE_ISO_SMILES>  (117) 
CSCC1=CC=C(O1)C(=O)N2CCCC(C2)NC3=CC=C(C=C3)F

>  <PUBCHEM_TOTAL_CHARGE>  (117) 
0

>  <PUBCHEM_XLOGP3_AA>  (117) 
3.6

$$$$
Largest isolated from Written by BCL::WriteToMDL,2367813
     RDKit          2D

 34 36  0 34  0  0  0  0  0  0999 V2000
   -0.9472   -0.4003    0.0000 S   0  0  0  0  0  0  0  0  0  0  0  0
   -1.9493    2.4273    0.0000 F   0  0  0  0  0  0  0  0  0  0  0  0
   -0.6742    1.0746    0.0000 O   0  0  0  0  0  0  0  0  0  0  0  0
   -1.3979   -1.8310    0.0000 O   0  0  0  0  0  0  0  0  0  0  0  0
    0.5278   -0.6733    0.0000 N   0  0  0  0  0  0  0  0  0  0  0  0
    1.0288   -2.0872    0.0000 C   0  0  0  0  0  0  0  0  0  0  0  0
    2.5038   -2.3602    0.0000 C   0  0  0  0  0  0  0  0  0  0  0  0
    3.4777   -1.2193    0.0000 C   0  0  0  0  0  0  0  0  0  0  0  0
    1.5017    0.4675    0.0000 C   0  0  0  0  0  0  0  0  0  0  0  0
    2.9766    0.1945    0.0000 C   0  0  0  0  0  0  0  0  0  0  0  0
    1.0006    1.8813    0.0000 C   0  0  0  0  0  0  0  0  0  0  0  0
    3.9505    1.3354    0.0000 C   0  0  0  0  0  0  0  0  0  0  0  0
   -2.4221   -0.1274    0.0000 C   0  0  0  0  0  0  0  0  0  0  0  0
    1.9745    3.0222    0.0000 C   0  0  0  0  0  0  0  0  0  0  0  0
    3.4495    2.7492    0.0000 C   0  0  0  0  0  0  0  0  0  0  0  0
   -2.9232    1.2865    0.0000 C   0  0  0  0  0  0  0  0  0  0  0  0
   -3.3960   -1.2682    0.0000 C   0  0  0  0  0  0  0  0  0  0  0  0
   -4.3981    1.5595    0.0000 C   0  0  0  0  0  0  0  0  0  0  0  0
   -4.8710   -0.9952    0.0000 C   0  0  0  0  0  0  0  0  0  0  0  0
   -5.3720    0.4186    0.0000 C   0  0  0  0  0  0  0  0  0  0  0  0
    1.0161   -3.5871    0.0000 H   0  0  0  0  0  0  0  0  0  0  0  0
   -0.4093   -2.5136    0.0000 H   0  0  0  0  0  0  0  0  0  0  0  0
    3.7964   -3.1212    0.0000 H   0  0  0  0  0  0  0  0  0  0  0  0
    1.9788   -3.7653    0.0000 H   0  0  0  0  0  0  0  0  0  0  0  0
    4.7830   -0.4804    0.0000 H   0  0  0  0  0  0  0  0  0  0  0  0
    4.4321   -2.3765    0.0000 H   0  0  0  0  0  0  0  0  0  0  0  0
   -0.4743    2.1543    0.0000 H   0  0  0  0  0  0  0  0  0  0  0  0
    5.4255    1.0624    0.0000 H   0  0  0  0  0  0  0  0  0  0  0  0
    1.4735    4.4360    0.0000 H   0  0  0  0  0  0  0  0  0  0  0  0
    4.4234    3.8900    0.0000 H   0  0  0  0  0  0  0  0  0  0  0  0
   -2.8949   -2.6820    0.0000 H   0  0  0  0  0  0  0  0  0  0  0  0
   -4.8992    2.9733    0.0000 H   0  0  0  0  0  0  0  0  0  0  0  0
   -5.8448   -2.1361    0.0000 H   0  0  0  0  0  0  0  0  0  0  0  0
   -6.8470    0.6916    0.0000 H   0  0  0  0  0  0  0  0  0  0  0  0
  1  3  2  0
  1  4  2  0
  1  5  1  0
  1 13  1  0
  2 16  1  0
  5  6  1  0
  5  9  1  0
  6  7  1  0
  6 21  1  0
  6 22  1  0
  7  8  1  0
  7 23  1  0
  7 24  1  0
  8 10  1  0
  8 25  1  0
  8 26  1  0
  9 10  2  0
  9 11  1  0
 10 12  1  0
 11 14  2  0
 11 27  1  0
 12 15  2  0
 12 28  1  0
 13 16  2  0
 13 17  1  0
 14 15  1  0
 14 29  1  0
 15 30  1  0
 16 18  1  0
 17 19  2  0
 17 31  1  0
 18 20  2  0
 18 32  1  0
 19 20  1  0
 19 33  1  0
 20 34  1  0
M  STY  8   1 DAT   2 DAT   3 DAT   4 DAT   5 DAT   6 DAT   7 DAT   8 DAT
M  STY  8   9 DAT  10 DAT  11 DAT  12 DAT  13 DAT  14 DAT  15 DAT  16 DAT
M  STY  8  17 DAT  18 DAT  19 DAT  20 DAT  21 DAT  22 DAT  23 DAT  24 DAT
M  STY  8  25 DAT  26 DAT  27 DAT  28 DAT  29 DAT  30 DAT  31 DAT  32 DAT
M  STY  2  33 DAT  34 DAT
M  SAL   1  1   1
M  SED   1 [#16&h0]
M  SAL   2  1   2
M  SED   2 [#9&h0]
M  SAL   3  1   3
M  SED   3 [#8&h0]
M  SAL   4  1   4
M  SED   4 [#8&h0]
M  SAL   5  1   5
M  SED   5 [#7&h0]
M  SAL   6  1   6
M  SED   6 [#6&h0]
M  SAL   7  1   7
M  SED   7 [#6&h0]
M  SAL   8  1   8
M  SED   8 [#6&h0]
M  SAL   9  1   9
M  SED   9 [#6&h0]
M  SAL  10  1  10
M  SED  10 [#6&h0]
M  SAL  11  1  11
M  SED  11 [#6&h0]
M  SAL  12  1  12
M  SED  12 [#6&h0]
M  SAL  13  1  13
M  SED  13 [#6&h0]
M  SAL  14  1  14
M  SED  14 [#6&h0]
M  SAL  15  1  15
M  SED  15 [#6&h0]
M  SAL  16  1  16
M  SED  16 [#6&h0]
M  SAL  17  1  17
M  SED  17 [#6&h0]
M  SAL  18  1  18
M  SED  18 [#6&h0]
M  SAL  19  1  19
M  SED  19 [#6&h0]
M  SAL  20  1  20
M  SED  20 [#6&h0]
M  SAL  21  1  21
M  SED  21 [#1&h0]
M  SAL  22  1  22
M  SED  22 [#1&h0]
M  SAL  23  1  23
M  SED  23 [#1&h0]
M  SAL  24  1  24
M  SED  24 [#1&h0]
M  SAL  25  1  25
M  SED  25 [#1&h0]
M  SAL  26  1  26
M  SED  26 [#1&h0]
M  SAL  27  1  27
M  SED  27 [#1&h0]
M  SAL  28  1  28
M  SED  28 [#1&h0]
M  SAL  29  1  29
M  SED  29 [#1&h0]
M  SAL  30  1  30
M  SED  30 [#1&h0]
M  SAL  31  1  31
M  SED  31 [#1&h0]
M  SAL  32  1  32
M  SED  32 [#1&h0]
M  SAL  33  1  33
M  SED  33 [#1&h0]
M  SAL  34  1  34
M  SED  34 [#1&h0]
M  END
>  <Activity>  (118) 
0.01

>  <Mapped(file=2032.csv.activities,property=Cached(PUBCHEM_COMPOUND_CID))>  (118) 
100

>  <MatchIndices>  (118) 
111 

>  <PUBCHEM_ATOM_DEF_STEREO_COUNT>  (118) 
0

>  <PUBCHEM_ATOM_UDEF_STEREO_COUNT>  (118) 
0

>  <PUBCHEM_BONDANNOTATIONS>  (118) 
10  12  8
11  14  8
12  15  8
13  16  8
13  17  8
14  15  8
16  18  8
17  19  8
18  20  8
19  20  8
9  10  8
9  11  8

>  <PUBCHEM_BOND_DEF_STEREO_COUNT>  (118) 
0

>  <PUBCHEM_BOND_UDEF_STEREO_COUNT>  (118) 
0

>  <PUBCHEM_CACTVS_COMPLEXITY>  (118) 
434

>  <PUBCHEM_CACTVS_HBOND_ACCEPTOR>  (118) 
4

>  <PUBCHEM_CACTVS_HBOND_DONOR>  (118) 
0

>  <PUBCHEM_CACTVS_ROTATABLE_BOND>  (118) 
2

>  <PUBCHEM_CACTVS_SUBSKEYS>  (118) 
AAADccByMQBAAAAAAAAAAAAAAAAAAAAAAAA8YIAAAAAAAACxQAAAHQQAQAAADAjBWAwwwYIAAAKAAiRCQHDCABAhAgAIiBgIZIgIICLAkZGEIAhggADIyAcQgIAOAAAAAAACAAAAAAAAAAQAAAAAAAAAAA==

>  <PUBCHEM_CACTVS_TAUTO_COUNT>  (118) 
1

>  <PUBCHEM_CACTVS_TPSA>  (118) 
45.8

>  <PUBCHEM_COMPONENT_COUNT>  (118) 
1

>  <PUBCHEM_COMPOUND_CANONICALIZED>  (118) 
1

>  <PUBCHEM_COMPOUND_CID>  (118) 
2367813

>  <PUBCHEM_COORDINATE_TYPE>  (118) 
1
5
255

>  <PUBCHEM_EXACT_MASS>  (118) 
291.072928

>  <PUBCHEM_HEAVY_ATOM_COUNT>  (118) 
20

>  <PUBCHEM_ISOTOPIC_ATOM_COUNT>  (118) 
0

>  <PUBCHEM_IUPAC_CAS_NAME>  (118) 
1-(2-fluorophenyl)sulfonyl-3,4-dihydro-2H-quinoline

>  <PUBCHEM_IUPAC_INCHI>  (118) 
InChI=1S/C15H14FNO2S/c16-13-8-2-4-10-15(13)20(18,19)17-11-5-7-12-6-1-3-9-14(12)17/h1-4,6,8-10H,5,7,11H2

>  <PUBCHEM_IUPAC_INCHIKEY>  (118) 
VYDYOSZZCXJMDC-UHFFFAOYSA-N

>  <PUBCHEM_IUPAC_NAME>  (118) 
1-(2-fluorophenyl)sulfonyl-3,4-dihydro-2H-quinoline

>  <PUBCHEM_IUPAC_OPENEYE_NAME>  (118) 
1-(2-fluorophenyl)sulfonyl-3,4-dihydro-2H-quinoline

>  <PUBCHEM_IUPAC_SYSTEMATIC_NAME>  (118) 
1-(2-fluorophenyl)sulfonyl-3,4-dihydro-2H-quinoline

>  <PUBCHEM_IUPAC_TRADITIONAL_NAME>  (118) 
1-(2-fluorophenyl)sulfonyl-3,4-dihydro-2H-quinoline

>  <PUBCHEM_MOLECULAR_FORMULA>  (118) 
C15H14FNO2S

>  <PUBCHEM_MOLECULAR_WEIGHT>  (118) 
291.340563

>  <PUBCHEM_MONOISOTOPIC_WEIGHT>  (118) 
291.072928

>  <PUBCHEM_OPENEYE_CAN_SMILES>  (118) 
C1CC2=CC=CC=C2N(C1)S(=O)(=O)C3=CC=CC=C3F

>  <PUBCHEM_OPENEYE_ISO_SMILES>  (118) 
C1CC2=CC=CC=C2N(C1)S(=O)(=O)C3=CC=CC=C3F

>  <PUBCHEM_TOTAL_CHARGE>  (118) 
0

>  <PUBCHEM_XLOGP3_AA>  (118) 
3.1

$$$$
Largest isolated from Written by BCL::WriteToMDL,2935256
     RDKit          2D

 43 44  0 43  0  0  0  0  0  0999 V2000
    2.4765   -1.5336    0.0000 O   0  0  0  0  0  0  0  0  0  0  0  0
   -2.5915    1.6780    0.0000 N   0  0  0  0  0  0  0  0  0  0  0  0
   -0.0575    0.0722    0.0000 C   0  0  0  0  0  0  0  0  0  0  0  0
   -1.3245    0.8751    0.0000 C   0  0  0  0  0  0  0  0  0  0  0  0
    1.2095   -0.7307    0.0000 C   0  0  0  0  0  0  0  0  0  0  0  0
   -3.9204    0.9822    0.0000 C   0  0  0  0  0  0  0  0  0  0  0  0
    3.8054   -0.8378    0.0000 C   0  0  0  0  0  0  0  0  0  0  0  0
   -5.2492    0.2864    0.0000 C   0  0  0  0  0  0  0  0  0  0  0  0
    5.0724   -1.6407    0.0000 C   0  0  0  0  0  0  0  0  0  0  0  0
    3.8672    0.6609    0.0000 C   0  0  0  0  0  0  0  0  0  0  0  0
    5.1961    1.3567    0.0000 C   0  0  0  0  0  0  0  0  0  0  0  0
    6.4013   -0.9449    0.0000 C   0  0  0  0  0  0  0  0  0  0  0  0
    6.4631    0.5538    0.0000 C   0  0  0  0  0  0  0  0  0  0  0  0
   -6.5162    1.0893    0.0000 C   0  0  0  0  0  0  0  0  0  0  0  0
   -5.3111   -1.2123    0.0000 C   0  0  0  0  0  0  0  0  0  0  0  0
    5.0106   -3.1395    0.0000 C   0  0  0  0  0  0  0  0  0  0  0  0
    5.2579    2.8554    0.0000 C   0  0  0  0  0  0  0  0  0  0  0  0
   -7.8451    0.3935    0.0000 C   0  0  0  0  0  0  0  0  0  0  0  0
   -6.6399   -1.9081    0.0000 C   0  0  0  0  0  0  0  0  0  0  0  0
   -7.9069   -1.1052    0.0000 C   0  0  0  0  0  0  0  0  0  0  0  0
    0.7454    1.3392    0.0000 H   0  0  0  0  0  0  0  0  0  0  0  0
   -0.8604   -1.1948    0.0000 H   0  0  0  0  0  0  0  0  0  0  0  0
   -0.5216    2.1421    0.0000 H   0  0  0  0  0  0  0  0  0  0  0  0
   -2.1274   -0.3919    0.0000 H   0  0  0  0  0  0  0  0  0  0  0  0
    0.4066   -1.9977    0.0000 H   0  0  0  0  0  0  0  0  0  0  0  0
    2.0124    0.5363    0.0000 H   0  0  0  0  0  0  0  0  0  0  0  0
   -2.5297    3.1768    0.0000 H   0  0  0  0  0  0  0  0  0  0  0  0
   -4.6162    2.3111    0.0000 H   0  0  0  0  0  0  0  0  0  0  0  0
   -3.2246   -0.3466    0.0000 H   0  0  0  0  0  0  0  0  0  0  0  0
    2.6002    1.4638    0.0000 H   0  0  0  0  0  0  0  0  0  0  0  0
    7.6683   -1.7478    0.0000 H   0  0  0  0  0  0  0  0  0  0  0  0
    7.7919    1.2496    0.0000 H   0  0  0  0  0  0  0  0  0  0  0  0
   -6.4544    2.5881    0.0000 H   0  0  0  0  0  0  0  0  0  0  0  0
   -4.0441   -2.0152    0.0000 H   0  0  0  0  0  0  0  0  0  0  0  0
    3.5118   -3.0776    0.0000 H   0  0  0  0  0  0  0  0  0  0  0  0
    6.5093   -3.2013    0.0000 H   0  0  0  0  0  0  0  0  0  0  0  0
    4.9487   -4.6382    0.0000 H   0  0  0  0  0  0  0  0  0  0  0  0
    6.7566    2.7936    0.0000 H   0  0  0  0  0  0  0  0  0  0  0  0
    3.7592    2.9173    0.0000 H   0  0  0  0  0  0  0  0  0  0  0  0
    5.3198    4.3542    0.0000 H   0  0  0  0  0  0  0  0  0  0  0  0
   -9.1121    1.1964    0.0000 H   0  0  0  0  0  0  0  0  0  0  0  0
   -6.7018   -3.4068    0.0000 H   0  0  0  0  0  0  0  0  0  0  0  0
   -9.2358   -1.8010    0.0000 H   0  0  0  0  0  0  0  0  0  0  0  0
  1  5  1  0
  1  7  1  0
  2  4  1  0
  2  6  1  0
  2 27  1  0
  3  4  1  0
  3  5  1  0
  3 21  1  0
  3 22  1  0
  4 23  1  0
  4 24  1  0
  5 25  1  0
  5 26  1  0
  6  8  1  0
  6 28  1  0
  6 29  1  0
  7  9  2  0
  7 10  1  0
  8 14  2  0
  8 15  1  0
  9 12  1  0
  9 16  1  0
 10 11  2  0
 10 30  1  0
 11 13  1  0
 11 17  1  0
 12 13  2  0
 12 31  1  0
 13 32  1  0
 14 18  1  0
 14 33  1  0
 15 19  2  0
 15 34  1  0
 16 35  1  0
 16 36  1  0
 16 37  1  0
 17 38  1  0
 17 39  1  0
 17 40  1  0
 18 20  2  0
 18 41  1  0
 19 20  1  0
 19 42  1  0
 20 43  1  0
M  STY  8   1 DAT   2 DAT   3 DAT   4 DAT   5 DAT   6 DAT   7 DAT   8 DAT
M  STY  8   9 DAT  10 DAT  11 DAT  12 DAT  13 DAT  14 DAT  15 DAT  16 DAT
M  STY  8  17 DAT  18 DAT  19 DAT  20 DAT  21 DAT  22 DAT  23 DAT  24 DAT
M  STY  8  25 DAT  26 DAT  27 DAT  28 DAT  29 DAT  30 DAT  31 DAT  32 DAT
M  STY  8  33 DAT  34 DAT  35 DAT  36 DAT  37 DAT  38 DAT  39 DAT  40 DAT
M  STY  3  41 DAT  42 DAT  43 DAT
M  SAL   1  1   1
M  SED   1 [#8&h0]
M  SAL   2  1   2
M  SED   2 [#7&h0]
M  SAL   3  1   3
M  SED   3 [#6&h0]
M  SAL   4  1   4
M  SED   4 [#6&h0]
M  SAL   5  1   5
M  SED   5 [#6&h0]
M  SAL   6  1   6
M  SED   6 [#6&h0]
M  SAL   7  1   7
M  SED   7 [#6&h0]
M  SAL   8  1   8
M  SED   8 [#6&h0]
M  SAL   9  1   9
M  SED   9 [#6&h0]
M  SAL  10  1  10
M  SED  10 [#6&h0]
M  SAL  11  1  11
M  SED  11 [#6&h0]
M  SAL  12  1  12
M  SED  12 [#6&h0]
M  SAL  13  1  13
M  SED  13 [#6&h0]
M  SAL  14  1  14
M  SED  14 [#6&h0]
M  SAL  15  1  15
M  SED  15 [#6&h0]
M  SAL  16  1  16
M  SED  16 [#6&h0]
M  SAL  17  1  17
M  SED  17 [#6&h0]
M  SAL  18  1  18
M  SED  18 [#6&h0]
M  SAL  19  1  19
M  SED  19 [#6&h0]
M  SAL  20  1  20
M  SED  20 [#6&h0]
M  SAL  21  1  21
M  SED  21 [#1&h0]
M  SAL  22  1  22
M  SED  22 [#1&h0]
M  SAL  23  1  23
M  SED  23 [#1&h0]
M  SAL  24  1  24
M  SED  24 [#1&h0]
M  SAL  25  1  25
M  SED  25 [#1&h0]
M  SAL  26  1  26
M  SED  26 [#1&h0]
M  SAL  27  1  27
M  SED  27 [#1&h0]
M  SAL  28  1  28
M  SED  28 [#1&h0]
M  SAL  29  1  29
M  SED  29 [#1&h0]
M  SAL  30  1  30
M  SED  30 [#1&h0]
M  SAL  31  1  31
M  SED  31 [#1&h0]
M  SAL  32  1  32
M  SED  32 [#1&h0]
M  SAL  33  1  33
M  SED  33 [#1&h0]
M  SAL  34  1  34
M  SED  34 [#1&h0]
M  SAL  35  1  35
M  SED  35 [#1&h0]
M  SAL  36  1  36
M  SED  36 [#1&h0]
M  SAL  37  1  37
M  SED  37 [#1&h0]
M  SAL  38  1  38
M  SED  38 [#1&h0]
M  SAL  39  1  39
M  SED  39 [#1&h0]
M  SAL  40  1  40
M  SED  40 [#1&h0]
M  SAL  41  1  41
M  SED  41 [#1&h0]
M  SAL  42  1  42
M  SED  42 [#1&h0]
M  SAL  43  1  43
M  SED  43 [#1&h0]
M  END
>  <Activity>  (119) 
0.01

>  <Mapped(file=2032.csv.activities,property=Cached(PUBCHEM_COMPOUND_CID))>  (119) 
100

>  <MatchIndices>  (119) 
10 

>  <PUBCHEM_ATOM_DEF_STEREO_COUNT>  (119) 
0

>  <PUBCHEM_ATOM_UDEF_STEREO_COUNT>  (119) 
0

>  <PUBCHEM_BONDANNOTATIONS>  (119) 
11  13  8
11  14  8
12  18  8
12  19  8
13  16  8
14  15  8
15  17  8
16  17  8
18  22  8
19  23  8
22  24  8
23  24  8

>  <PUBCHEM_BOND_DEF_STEREO_COUNT>  (119) 
0

>  <PUBCHEM_BOND_UDEF_STEREO_COUNT>  (119) 
0

>  <PUBCHEM_CACTVS_COMPLEXITY>  (119) 
321

>  <PUBCHEM_CACTVS_HBOND_ACCEPTOR>  (119) 
6

>  <PUBCHEM_CACTVS_HBOND_DONOR>  (119) 
3

>  <PUBCHEM_CACTVS_ROTATABLE_BOND>  (119) 
8

>  <PUBCHEM_CACTVS_SUBSKEYS>  (119) 
AAADceB6OAAAAAAAAAAAAAAAAAAAAAAAAAAwYAAAAAAAAAABQAAAHgAQCAAADAThmAYyDoLABgCIAiDSCAKCCAAgIAAIiIBODIgNJiKEsRuGOCjm0BGJqAeQwDAOQAABAAAIAACAAAIAABAAAAAAAAAAAA==

>  <PUBCHEM_CACTVS_TAUTO_COUNT>  (119) 
1

>  <PUBCHEM_CACTVS_TPSA>  (119) 
95.9

>  <PUBCHEM_COMPONENT_COUNT>  (119) 
2

>  <PUBCHEM_COMPOUND_CANONICALIZED>  (119) 
1

>  <PUBCHEM_COMPOUND_CID>  (119) 
2935256

>  <PUBCHEM_COORDINATE_TYPE>  (119) 
1
5
255

>  <PUBCHEM_EXACT_MASS>  (119) 
359.173273

>  <PUBCHEM_HEAVY_ATOM_COUNT>  (119) 
26

>  <PUBCHEM_ISOTOPIC_ATOM_COUNT>  (119) 
0

>  <PUBCHEM_IUPAC_CAS_NAME>  (119) 
3-(2,5-dimethylphenoxy)-N-(phenylmethyl)-1-propanamine; oxalic acid

>  <PUBCHEM_IUPAC_INCHI>  (119) 
InChI=1S/C18H23NO.C2H2O4/c1-15-9-10-16(2)18(13-15)20-12-6-11-19-14-17-7-4-3-5-8-17;3-1(4)2(5)6/h3-5,7-10,13,19H,6,11-12,14H2,1-2H3;(H,3,4)(H,5,6)

>  <PUBCHEM_IUPAC_INCHIKEY>  (119) 
XALXKHUBXHINFV-UHFFFAOYSA-N

>  <PUBCHEM_IUPAC_NAME>  (119) 
N-benzyl-3-(2,5-dimethylphenoxy)propan-1-amine; oxalic acid

>  <PUBCHEM_IUPAC_OPENEYE_NAME>  (119) 
N-benzyl-3-(2,5-dimethylphenoxy)propan-1-amine; oxalic acid

>  <PUBCHEM_IUPAC_SYSTEMATIC_NAME>  (119) 
3-(2,5-dimethylphenoxy)-N-(phenylmethyl)propan-1-amine; ethanedioic acid

>  <PUBCHEM_IUPAC_TRADITIONAL_NAME>  (119) 
benzyl-[3-(2,5-dimethylphenoxy)propyl]amine; oxalic acid

>  <PUBCHEM_MOLECULAR_FORMULA>  (119) 
C20H25NO5

>  <PUBCHEM_MOLECULAR_WEIGHT>  (119) 
359.4162

>  <PUBCHEM_MONOISOTOPIC_WEIGHT>  (119) 
359.173273

>  <PUBCHEM_OPENEYE_CAN_SMILES>  (119) 
CC1=CC(=C(C=C1)C)OCCCNCC2=CC=CC=C2.C(=O)(C(=O)O)O

>  <PUBCHEM_OPENEYE_ISO_SMILES>  (119) 
CC1=CC(=C(C=C1)C)OCCCNCC2=CC=CC=C2.C(=O)(C(=O)O)O

>  <PUBCHEM_TOTAL_CHARGE>  (119) 
0

$$$$
Largest isolated from Written by BCL::WriteToMDL,695106
     RDKit          2D

 46 48  0 46  0  0  0  0  0  0999 V2000
   -5.4336   -0.4700    0.0000 O   0  0  0  0  0  0  0  0  0  0  0  0
   -3.9999    1.0520    0.0000 O   0  0  0  0  0  0  0  0  0  0  0  0
    3.1788   -3.3638    0.0000 O   0  0  0  0  0  0  0  0  0  0  0  0
    0.1323   -0.8205    0.0000 N   0  0  0  0  0  0  0  0  0  0  0  0
   -2.8672   -0.8748    0.0000 C   0  0  0  0  0  0  0  0  0  0  0  0
   -2.1409    0.4376    0.0000 C   0  0  0  0  0  0  0  0  0  0  0  0
   -2.0938   -2.1600    0.0000 C   0  0  0  0  0  0  0  0  0  0  0  0
   -0.6411    0.4648    0.0000 C   0  0  0  0  0  0  0  0  0  0  0  0
   -0.5941   -2.1329    0.0000 C   0  0  0  0  0  0  0  0  0  0  0  0
    1.6320   -0.7933    0.0000 C   0  0  0  0  0  0  0  0  0  0  0  0
   -4.0336    0.0685    0.0000 C   0  0  0  0  0  0  0  0  0  0  0  0
    3.1318   -0.7661    0.0000 C   0  0  0  0  0  0  0  0  0  0  0  0
    3.8582    0.5463    0.0000 C   0  0  0  0  0  0  0  0  0  0  0  0
    3.9052   -2.0514    0.0000 C   0  0  0  0  0  0  0  0  0  0  0  0
    5.3579    0.5734    0.0000 C   0  0  0  0  0  0  0  0  0  0  0  0
    5.4049   -2.0242    0.0000 C   0  0  0  0  0  0  0  0  0  0  0  0
    3.0848    1.8315    0.0000 C   0  0  0  0  0  0  0  0  0  0  0  0
    6.1313   -0.7118    0.0000 C   0  0  0  0  0  0  0  0  0  0  0  0
   -6.5999    0.4732    0.0000 C   0  0  0  0  0  0  0  0  0  0  0  0
    6.0843    1.8858    0.0000 C   0  0  0  0  0  0  0  0  0  0  0  0
    3.8111    3.1439    0.0000 C   0  0  0  0  0  0  0  0  0  0  0  0
    5.3109    3.1711    0.0000 C   0  0  0  0  0  0  0  0  0  0  0  0
   -7.7662    1.4165    0.0000 C   0  0  0  0  0  0  0  0  0  0  0  0
   -3.9986   -1.8596    0.0000 H   0  0  0  0  0  0  0  0  0  0  0  0
   -1.8067   -3.6323    0.0000 H   0  0  0  0  0  0  0  0  0  0  0  0
   -3.4939   -2.6985    0.0000 H   0  0  0  0  0  0  0  0  0  0  0  0
   -3.0257    0.8685    0.0000 H   0  0  0  0  0  0  0  0  0  0  0  0
   -1.9072    1.9193    0.0000 H   0  0  0  0  0  0  0  0  0  0  0  0
    0.7545   -2.7896    0.0000 H   0  0  0  0  0  0  0  0  0  0  0  0
   -0.8278   -3.6145    0.0000 H   0  0  0  0  0  0  0  0  0  0  0  0
   -0.9283    1.9371    0.0000 H   0  0  0  0  0  0  0  0  0  0  0  0
    0.6828    1.1699    0.0000 H   0  0  0  0  0  0  0  0  0  0  0  0
    1.7879    0.6986    0.0000 H   0  0  0  0  0  0  0  0  0  0  0  0
    1.8418   -2.2786    0.0000 H   0  0  0  0  0  0  0  0  0  0  0  0
    6.1783   -3.3095    0.0000 H   0  0  0  0  0  0  0  0  0  0  0  0
    1.5850    1.8043    0.0000 H   0  0  0  0  0  0  0  0  0  0  0  0
    7.6311   -0.6847    0.0000 H   0  0  0  0  0  0  0  0  0  0  0  0
   -7.5431   -0.6931    0.0000 H   0  0  0  0  0  0  0  0  0  0  0  0
   -5.6567    1.6396    0.0000 H   0  0  0  0  0  0  0  0  0  0  0  0
    7.5840    1.9130    0.0000 H   0  0  0  0  0  0  0  0  0  0  0  0
    3.0377    4.4292    0.0000 H   0  0  0  0  0  0  0  0  0  0  0  0
    6.0372    4.4835    0.0000 H   0  0  0  0  0  0  0  0  0  0  0  0
    1.6791   -3.3910    0.0000 H   0  0  0  0  0  0  0  0  0  0  0  0
   -6.8230    2.5828    0.0000 H   0  0  0  0  0  0  0  0  0  0  0  0
   -8.7095    0.2501    0.0000 H   0  0  0  0  0  0  0  0  0  0  0  0
   -8.9326    2.3597    0.0000 H   0  0  0  0  0  0  0  0  0  0  0  0
  1 11  1  0
  1 19  1  0
  2 11  2  0
  3 14  1  0
  3 43  1  0
  4  8  1  0
  4  9  1  0
  4 10  1  0
  5  6  1  0
  5  7  1  0
  5 11  1  0
  5 24  1  0
  6  8  1  0
  6 27  1  0
  6 28  1  0
  7  9  1  0
  7 25  1  0
  7 26  1  0
  8 31  1  0
  8 32  1  0
  9 29  1  0
  9 30  1  0
 10 12  1  0
 10 33  1  0
 10 34  1  0
 12 13  1  0
 12 14  2  0
 13 15  2  0
 13 17  1  0
 14 16  1  0
 15 18  1  0
 15 20  1  0
 16 18  2  0
 16 35  1  0
 17 21  2  0
 17 36  1  0
 18 37  1  0
 19 23  1  0
 19 38  1  0
 19 39  1  0
 20 22  2  0
 20 40  1  0
 21 22  1  0
 21 41  1  0
 22 42  1  0
 23 44  1  0
 23 45  1  0
 23 46  1  0
M  STY  8   1 DAT   2 DAT   3 DAT   4 DAT   5 DAT   6 DAT   7 DAT   8 DAT
M  STY  8   9 DAT  10 DAT  11 DAT  12 DAT  13 DAT  14 DAT  15 DAT  16 DAT
M  STY  8  17 DAT  18 DAT  19 DAT  20 DAT  21 DAT  22 DAT  23 DAT  24 DAT
M  STY  8  25 DAT  26 DAT  27 DAT  28 DAT  29 DAT  30 DAT  31 DAT  32 DAT
M  STY  8  33 DAT  34 DAT  35 DAT  36 DAT  37 DAT  38 DAT  39 DAT  40 DAT
M  STY  6  41 DAT  42 DAT  43 DAT  44 DAT  45 DAT  46 DAT
M  SAL   1  1   1
M  SED   1 [#8&h0]
M  SAL   2  1   2
M  SED   2 [#8&h0]
M  SAL   3  1   3
M  SED   3 [#8&h0]
M  SAL   4  1   4
M  SED   4 [#7&h0]
M  SAL   5  1   5
M  SED   5 [#6&h0]
M  SAL   6  1   6
M  SED   6 [#6&h0]
M  SAL   7  1   7
M  SED   7 [#6&h0]
M  SAL   8  1   8
M  SED   8 [#6&h0]
M  SAL   9  1   9
M  SED   9 [#6&h0]
M  SAL  10  1  10
M  SED  10 [#6&h0]
M  SAL  11  1  11
M  SED  11 [#6&h0]
M  SAL  12  1  12
M  SED  12 [#6&h0]
M  SAL  13  1  13
M  SED  13 [#6&h0]
M  SAL  14  1  14
M  SED  14 [#6&h0]
M  SAL  15  1  15
M  SED  15 [#6&h0]
M  SAL  16  1  16
M  SED  16 [#6&h0]
M  SAL  17  1  17
M  SED  17 [#6&h0]
M  SAL  18  1  18
M  SED  18 [#6&h0]
M  SAL  19  1  19
M  SED  19 [#6&h0]
M  SAL  20  1  20
M  SED  20 [#6&h0]
M  SAL  21  1  21
M  SED  21 [#6&h0]
M  SAL  22  1  22
M  SED  22 [#6&h0]
M  SAL  23  1  23
M  SED  23 [#6&h0]
M  SAL  24  1  24
M  SED  24 [#1&h0]
M  SAL  25  1  25
M  SED  25 [#1&h0]
M  SAL  26  1  26
M  SED  26 [#1&h0]
M  SAL  27  1  27
M  SED  27 [#1&h0]
M  SAL  28  1  28
M  SED  28 [#1&h0]
M  SAL  29  1  29
M  SED  29 [#1&h0]
M  SAL  30  1  30
M  SED  30 [#1&h0]
M  SAL  31  1  31
M  SED  31 [#1&h0]
M  SAL  32  1  32
M  SED  32 [#1&h0]
M  SAL  33  1  33
M  SED  33 [#1&h0]
M  SAL  34  1  34
M  SED  34 [#1&h0]
M  SAL  35  1  35
M  SED  35 [#1&h0]
M  SAL  36  1  36
M  SED  36 [#1&h0]
M  SAL  37  1  37
M  SED  37 [#1&h0]
M  SAL  38  1  38
M  SED  38 [#1&h0]
M  SAL  39  1  39
M  SED  39 [#1&h0]
M  SAL  40  1  40
M  SED  40 [#1&h0]
M  SAL  41  1  41
M  SED  41 [#1&h0]
M  SAL  42  1  42
M  SED  42 [#1&h0]
M  SAL  43  1  43
M  SED  43 [#1&h0]
M  SAL  44  1  44
M  SED  44 [#1&h0]
M  SAL  45  1  45
M  SED  45 [#1&h0]
M  SAL  46  1  46
M  SED  46 [#1&h0]
M  END
>  <Activity>  (120) 
0.01

>  <Mapped(file=2032.csv.activities,property=Cached(PUBCHEM_COMPOUND_CID))>  (120) 
100

>  <MatchIndices>  (120) 
216 

>  <PUBCHEM_ATOM_DEF_STEREO_COUNT>  (120) 
0

>  <PUBCHEM_ATOM_UDEF_STEREO_COUNT>  (120) 
0

>  <PUBCHEM_BONDANNOTATIONS>  (120) 
12  13  8
12  14  8
13  15  8
13  17  8
14  16  8
15  18  8
15  20  8
16  18  8
17  21  8
20  22  8
21  22  8

>  <PUBCHEM_BOND_DEF_STEREO_COUNT>  (120) 
0

>  <PUBCHEM_BOND_UDEF_STEREO_COUNT>  (120) 
0

>  <PUBCHEM_CACTVS_COMPLEXITY>  (120) 
392

>  <PUBCHEM_CACTVS_HBOND_ACCEPTOR>  (120) 
4

>  <PUBCHEM_CACTVS_HBOND_DONOR>  (120) 
1

>  <PUBCHEM_CACTVS_ROTATABLE_BOND>  (120) 
5

>  <PUBCHEM_CACTVS_SUBSKEYS>  (120) 
AAADceB6MAAAAAAAAAAAAAAAAAAAAAAAAAA8YIAAAAAAAADBUAAAHgAACAAADQThmAYyDsMABgCIAiDSCACCAAAgIAAIiAEODIgIJjKCkROGcAhmwBGImAe0wPAOoAADAAAYAABAAAYAADAAAAAAAAAAAA==

>  <PUBCHEM_CACTVS_TAUTO_COUNT>  (120) 
3

>  <PUBCHEM_CACTVS_TPSA>  (120) 
49.8

>  <PUBCHEM_COMPONENT_COUNT>  (120) 
1

>  <PUBCHEM_COMPOUND_CANONICALIZED>  (120) 
1

>  <PUBCHEM_COMPOUND_CID>  (120) 
695106

>  <PUBCHEM_COORDINATE_TYPE>  (120) 
1
5
255

>  <PUBCHEM_EXACT_MASS>  (120) 
313.167794

>  <PUBCHEM_HEAVY_ATOM_COUNT>  (120) 
23

>  <PUBCHEM_ISOTOPIC_ATOM_COUNT>  (120) 
0

>  <PUBCHEM_IUPAC_CAS_NAME>  (120) 
1-[(2-hydroxy-1-naphthalenyl)methyl]-4-piperidinecarboxylic acid ethyl ester

>  <PUBCHEM_IUPAC_INCHI>  (120) 
InChI=1S/C19H23NO3/c1-2-23-19(22)15-9-11-20(12-10-15)13-17-16-6-4-3-5-14(16)7-8-18(17)21/h3-8,15,21H,2,9-13H2,1H3

>  <PUBCHEM_IUPAC_INCHIKEY>  (120) 
LHSFABKSUGCJKP-UHFFFAOYSA-N

>  <PUBCHEM_IUPAC_NAME>  (120) 
ethyl 1-[(2-hydroxynaphthalen-1-yl)methyl]piperidine-4-carboxylate

>  <PUBCHEM_IUPAC_OPENEYE_NAME>  (120) 
ethyl 1-[(2-hydroxy-1-naphthyl)methyl]piperidine-4-carboxylate

>  <PUBCHEM_IUPAC_SYSTEMATIC_NAME>  (120) 
ethyl 1-[(2-oxidanylnaphthalen-1-yl)methyl]piperidine-4-carboxylate

>  <PUBCHEM_IUPAC_TRADITIONAL_NAME>  (120) 
1-[(2-hydroxy-1-naphthyl)methyl]isonipecotic acid ethyl ester

>  <PUBCHEM_MOLECULAR_FORMULA>  (120) 
C19H23NO3

>  <PUBCHEM_MOLECULAR_WEIGHT>  (120) 
313.39082

>  <PUBCHEM_MONOISOTOPIC_WEIGHT>  (120) 
313.167794

>  <PUBCHEM_OPENEYE_CAN_SMILES>  (120) 
CCOC(=O)C1CCN(CC1)CC2=C(C=CC3=CC=CC=C32)O

>  <PUBCHEM_OPENEYE_ISO_SMILES>  (120) 
CCOC(=O)C1CCN(CC1)CC2=C(C=CC3=CC=CC=C32)O

>  <PUBCHEM_TOTAL_CHARGE>  (120) 
0

>  <PUBCHEM_XLOGP3_AA>  (120) 
3.4

$$$$
Largest isolated from Written by BCL::WriteToMDL,2841713
     RDKit          2D

 33 34  0 33  0  0  0  0  0  0999 V2000
   -6.5038    1.8726    0.0000 Br  0  0  0  0  0  0  0  0  0  0  0  0
   -1.3263   -1.1595    0.0000 S   0  0  0  0  0  0  0  0  0  0  0  0
   -1.0103   -0.4277    0.0000 O   0  0  0  0  0  0  0  0  0  0  0  0
   -2.0844   -2.4539    0.0000 O   0  0  0  0  0  0  0  0  0  0  0  0
   -0.0320   -1.9176    0.0000 N   0  0  0  0  0  0  0  0  0  0  0  0
    1.2717   -1.1756    0.0000 C   0  0  0  0  0  0  0  0  0  0  0  0
    2.5754   -0.4337    0.0000 C   0  0  0  0  0  0  0  0  0  0  0  0
    0.5298    0.1280    0.0000 C   0  0  0  0  0  0  0  0  0  0  0  0
   -2.6207   -0.4015    0.0000 C   0  0  0  0  0  0  0  0  0  0  0  0
    3.8697   -1.1917    0.0000 C   0  0  0  0  0  0  0  0  0  0  0  0
    2.5846    1.0663    0.0000 C   0  0  0  0  0  0  0  0  0  0  0  0
   -2.6114    1.0985    0.0000 C   0  0  0  0  0  0  0  0  0  0  0  0
   -3.9244   -1.1434    0.0000 C   0  0  0  0  0  0  0  0  0  0  0  0
    5.1734   -0.4498    0.0000 C   0  0  0  0  0  0  0  0  0  0  0  0
    3.8883    1.8082    0.0000 C   0  0  0  0  0  0  0  0  0  0  0  0
    5.1827    1.0502    0.0000 C   0  0  0  0  0  0  0  0  0  0  0  0
   -3.9058    1.8565    0.0000 C   0  0  0  0  0  0  0  0  0  0  0  0
   -5.2187   -0.3854    0.0000 C   0  0  0  0  0  0  0  0  0  0  0  0
   -5.2094    1.1146    0.0000 C   0  0  0  0  0  0  0  0  0  0  0  0
    2.0136   -2.4793    0.0000 H   0  0  0  0  0  0  0  0  0  0  0  0
   -0.0413   -3.4175    0.0000 H   0  0  0  0  0  0  0  0  0  0  0  0
    1.6151    1.1634    0.0000 H   0  0  0  0  0  0  0  0  0  0  0  0
   -0.3459   -0.0050    0.0000 H   0  0  0  0  0  0  0  0  0  0  0  0
   -0.2122    1.4317    0.0000 H   0  0  0  0  0  0  0  0  0  0  0  0
    3.8604   -2.6917    0.0000 H   0  0  0  0  0  0  0  0  0  0  0  0
    1.2903    1.8243    0.0000 H   0  0  0  0  0  0  0  0  0  0  0  0
   -1.3077    1.8404    0.0000 H   0  0  0  0  0  0  0  0  0  0  0  0
   -3.9336   -2.6434    0.0000 H   0  0  0  0  0  0  0  0  0  0  0  0
    6.4678   -1.2078    0.0000 H   0  0  0  0  0  0  0  0  0  0  0  0
    3.8976    3.3082    0.0000 H   0  0  0  0  0  0  0  0  0  0  0  0
    6.4863    1.7921    0.0000 H   0  0  0  0  0  0  0  0  0  0  0  0
   -3.8965    3.3565    0.0000 H   0  0  0  0  0  0  0  0  0  0  0  0
   -6.5224   -1.1273    0.0000 H   0  0  0  0  0  0  0  0  0  0  0  0
  1 19  1  0
  2  3  2  0
  2  4  2  0
  2  5  1  0
  2  9  1  0
  5  6  1  0
  5 21  1  0
  6  7  1  0
  6  8  1  0
  6 20  1  1
  7 10  2  0
  7 11  1  0
  8 22  1  0
  8 23  1  0
  8 24  1  0
  9 12  2  0
  9 13  1  0
 10 14  1  0
 10 25  1  0
 11 15  2  0
 11 26  1  0
 12 17  1  0
 12 27  1  0
 13 18  2  0
 13 28  1  0
 14 16  2  0
 14 29  1  0
 15 16  1  0
 15 30  1  0
 16 31  1  0
 17 19  2  0
 17 32  1  0
 18 19  1  0
 18 33  1  0
M  STY  8   1 DAT   2 DAT   3 DAT   4 DAT   5 DAT   6 DAT   7 DAT   8 DAT
M  STY  8   9 DAT  10 DAT  11 DAT  12 DAT  13 DAT  14 DAT  15 DAT  16 DAT
M  STY  8  17 DAT  18 DAT  19 DAT  20 DAT  21 DAT  22 DAT  23 DAT  24 DAT
M  STY  8  25 DAT  26 DAT  27 DAT  28 DAT  29 DAT  30 DAT  31 DAT  32 DAT
M  STY  1  33 DAT
M  SAL   1  1   1
M  SED   1 [#35&h0]
M  SAL   2  1   2
M  SED   2 [#16&h0]
M  SAL   3  1   3
M  SED   3 [#8&h0]
M  SAL   4  1   4
M  SED   4 [#8&h0]
M  SAL   5  1   5
M  SED   5 [#7&h0]
M  SAL   6  1   6
M  SED   6 [#6&h0]
M  SAL   7  1   7
M  SED   7 [#6&h0]
M  SAL   8  1   8
M  SED   8 [#6&h0]
M  SAL   9  1   9
M  SED   9 [#6&h0]
M  SAL  10  1  10
M  SED  10 [#6&h0]
M  SAL  11  1  11
M  SED  11 [#6&h0]
M  SAL  12  1  12
M  SED  12 [#6&h0]
M  SAL  13  1  13
M  SED  13 [#6&h0]
M  SAL  14  1  14
M  SED  14 [#6&h0]
M  SAL  15  1  15
M  SED  15 [#6&h0]
M  SAL  16  1  16
M  SED  16 [#6&h0]
M  SAL  17  1  17
M  SED  17 [#6&h0]
M  SAL  18  1  18
M  SED  18 [#6&h0]
M  SAL  19  1  19
M  SED  19 [#6&h0]
M  SAL  20  1  20
M  SED  20 [#1&h0]
M  SAL  21  1  21
M  SED  21 [#1&h0]
M  SAL  22  1  22
M  SED  22 [#1&h0]
M  SAL  23  1  23
M  SED  23 [#1&h0]
M  SAL  24  1  24
M  SED  24 [#1&h0]
M  SAL  25  1  25
M  SED  25 [#1&h0]
M  SAL  26  1  26
M  SED  26 [#1&h0]
M  SAL  27  1  27
M  SED  27 [#1&h0]
M  SAL  28  1  28
M  SED  28 [#1&h0]
M  SAL  29  1  29
M  SED  29 [#1&h0]
M  SAL  30  1  30
M  SED  30 [#1&h0]
M  SAL  31  1  31
M  SED  31 [#1&h0]
M  SAL  32  1  32
M  SED  32 [#1&h0]
M  SAL  33  1  33
M  SED  33 [#1&h0]
M  END
>  <Activity>  (121) 
0.01

>  <Mapped(file=2032.csv.activities,property=Cached(PUBCHEM_COMPOUND_CID))>  (121) 
100

>  <MatchIndices>  (121) 
46 

>  <PUBCHEM_ATOM_DEF_STEREO_COUNT>  (121) 
0

>  <PUBCHEM_ATOM_UDEF_STEREO_COUNT>  (121) 
1

>  <PUBCHEM_BONDANNOTATIONS>  (121) 
10  14  8
11  15  8
12  17  8
13  18  8
14  16  8
15  16  8
17  19  8
18  19  8
6  8  3
7  10  8
7  11  8
9  12  8
9  13  8

>  <PUBCHEM_BOND_DEF_STEREO_COUNT>  (121) 
0

>  <PUBCHEM_BOND_UDEF_STEREO_COUNT>  (121) 
0

>  <PUBCHEM_CACTVS_COMPLEXITY>  (121) 
365

>  <PUBCHEM_CACTVS_HBOND_ACCEPTOR>  (121) 
3

>  <PUBCHEM_CACTVS_HBOND_DONOR>  (121) 
1

>  <PUBCHEM_CACTVS_ROTATABLE_BOND>  (121) 
4

>  <PUBCHEM_CACTVS_SUBSKEYS>  (121) 
AAADccByMABAEAAAAAAAAAAAAAAAAAAAAAAwYAAAAAAAAAABQAAAHARQQAABrCjBWAQyAYBAAAKAAiBCAHDCABAgAAQIiJgABKgIICKAkRGAIABgkAAIihcQgIAOAAEAAAAAAAAAAgAAAAAAAAAAAAAAAA==

>  <PUBCHEM_CACTVS_TAUTO_COUNT>  (121) 
1

>  <PUBCHEM_CACTVS_TPSA>  (121) 
54.6

>  <PUBCHEM_COMPONENT_COUNT>  (121) 
1

>  <PUBCHEM_COMPOUND_CANONICALIZED>  (121) 
1

>  <PUBCHEM_COMPOUND_CID>  (121) 
2841713

>  <PUBCHEM_COORDINATE_TYPE>  (121) 
1
5
255

>  <PUBCHEM_EXACT_MASS>  (121) 
338.992862

>  <PUBCHEM_HEAVY_ATOM_COUNT>  (121) 
19

>  <PUBCHEM_ISOTOPIC_ATOM_COUNT>  (121) 
0

>  <PUBCHEM_IUPAC_CAS_NAME>  (121) 
4-bromo-N-(1-phenylethyl)benzenesulfonamide

>  <PUBCHEM_IUPAC_INCHI>  (121) 
InChI=1S/C14H14BrNO2S/c1-11(12-5-3-2-4-6-12)16-19(17,18)14-9-7-13(15)8-10-14/h2-11,16H,1H3

>  <PUBCHEM_IUPAC_INCHIKEY>  (121) 
WJQPTAVUAWEPCK-UHFFFAOYSA-N

>  <PUBCHEM_IUPAC_NAME>  (121) 
4-bromo-N-(1-phenylethyl)benzenesulfonamide

>  <PUBCHEM_IUPAC_OPENEYE_NAME>  (121) 
4-bromo-N-(1-phenylethyl)benzenesulfonamide

>  <PUBCHEM_IUPAC_SYSTEMATIC_NAME>  (121) 
4-bromanyl-N-(1-phenylethyl)benzenesulfonamide

>  <PUBCHEM_IUPAC_TRADITIONAL_NAME>  (121) 
4-bromo-N-(1-phenylethyl)benzenesulfonamide

>  <PUBCHEM_MOLECULAR_FORMULA>  (121) 
C14H14BrNO2S

>  <PUBCHEM_MOLECULAR_WEIGHT>  (121) 
340.23546

>  <PUBCHEM_MONOISOTOPIC_WEIGHT>  (121) 
338.992862

>  <PUBCHEM_OPENEYE_CAN_SMILES>  (121) 
CC(C1=CC=CC=C1)NS(=O)(=O)C2=CC=C(C=C2)Br

>  <PUBCHEM_OPENEYE_ISO_SMILES>  (121) 
CC(C1=CC=CC=C1)NS(=O)(=O)C2=CC=C(C=C2)Br

>  <PUBCHEM_TOTAL_CHARGE>  (121) 
0

>  <PUBCHEM_XLOGP3_AA>  (121) 
3.5

$$$$
Largest isolated from Written by BCL::WriteToMDL,17367564
     RDKit          2D

 38 39  0 38  0  0  0  0  0  0999 V2000
   -7.7189    1.9294    0.0000 Br  0  0  0  0  0  0  0  0  0  0  0  0
    2.7043    3.1970    0.0000 O   0  0  0  0  0  0  0  0  0  0  0  0
    5.2013   -1.3599    0.0000 O   0  0  0  0  0  0  0  0  0  0  0  0
   -1.3090   -1.9647    0.0000 N   0  0  0  0  0  0  0  0  0  0  0  0
    0.0064   -1.2439    0.0000 C   0  0  0  0  0  0  0  0  0  0  0  0
    1.3219   -0.5231    0.0000 C   0  0  0  0  0  0  0  0  0  0  0  0
   -2.5910   -1.1859    0.0000 C   0  0  0  0  0  0  0  0  0  0  0  0
   -3.8730   -0.4071    0.0000 C   0  0  0  0  0  0  0  0  0  0  0  0
    2.6038   -1.3019    0.0000 C   0  0  0  0  0  0  0  0  0  0  0  0
    1.3554    0.9766    0.0000 C   0  0  0  0  0  0  0  0  0  0  0  0
    2.6708    1.6974    0.0000 C   0  0  0  0  0  0  0  0  0  0  0  0
    3.9193   -0.5811    0.0000 C   0  0  0  0  0  0  0  0  0  0  0  0
    3.9528    0.9186    0.0000 C   0  0  0  0  0  0  0  0  0  0  0  0
   -3.8395    1.0926    0.0000 C   0  0  0  0  0  0  0  0  0  0  0  0
   -5.1884   -1.1279    0.0000 C   0  0  0  0  0  0  0  0  0  0  0  0
   -5.1215    1.8714    0.0000 C   0  0  0  0  0  0  0  0  0  0  0  0
   -6.4704   -0.3491    0.0000 C   0  0  0  0  0  0  0  0  0  0  0  0
   -6.4369    1.1506    0.0000 C   0  0  0  0  0  0  0  0  0  0  0  0
    4.0198    3.9178    0.0000 C   0  0  0  0  0  0  0  0  0  0  0  0
    5.1678   -2.8595    0.0000 C   0  0  0  0  0  0  0  0  0  0  0  0
    0.7272   -2.5593    0.0000 H   0  0  0  0  0  0  0  0  0  0  0  0
   -0.7144    0.0716    0.0000 H   0  0  0  0  0  0  0  0  0  0  0  0
   -3.3698   -2.4679    0.0000 H   0  0  0  0  0  0  0  0  0  0  0  0
   -1.8122    0.0961    0.0000 H   0  0  0  0  0  0  0  0  0  0  0  0
   -1.3425   -3.4643    0.0000 H   0  0  0  0  0  0  0  0  0  0  0  0
    2.5704   -2.8015    0.0000 H   0  0  0  0  0  0  0  0  0  0  0  0
    0.0734    1.7554    0.0000 H   0  0  0  0  0  0  0  0  0  0  0  0
    5.2682    1.6394    0.0000 H   0  0  0  0  0  0  0  0  0  0  0  0
   -2.5240    1.8134    0.0000 H   0  0  0  0  0  0  0  0  0  0  0  0
   -5.2219   -2.6275    0.0000 H   0  0  0  0  0  0  0  0  0  0  0  0
   -5.0880    3.3710    0.0000 H   0  0  0  0  0  0  0  0  0  0  0  0
   -7.7859   -1.0699    0.0000 H   0  0  0  0  0  0  0  0  0  0  0  0
    3.2989    5.2333    0.0000 H   0  0  0  0  0  0  0  0  0  0  0  0
    4.7406    2.6024    0.0000 H   0  0  0  0  0  0  0  0  0  0  0  0
    5.3352    4.6386    0.0000 H   0  0  0  0  0  0  0  0  0  0  0  0
    6.6674   -2.8930    0.0000 H   0  0  0  0  0  0  0  0  0  0  0  0
    3.6682   -2.8260    0.0000 H   0  0  0  0  0  0  0  0  0  0  0  0
    5.1343   -4.3591    0.0000 H   0  0  0  0  0  0  0  0  0  0  0  0
  1 18  1  0
  2 11  1  0
  2 19  1  0
  3 12  1  0
  3 20  1  0
  4  5  1  0
  4  7  1  0
  4 25  1  0
  5  6  1  0
  5 21  1  0
  5 22  1  0
  6  9  2  0
  6 10  1  0
  7  8  1  0
  7 23  1  0
  7 24  1  0
  8 14  2  0
  8 15  1  0
  9 12  1  0
  9 26  1  0
 10 11  2  0
 10 27  1  0
 11 13  1  0
 12 13  2  0
 13 28  1  0
 14 16  1  0
 14 29  1  0
 15 17  2  0
 15 30  1  0
 16 18  2  0
 16 31  1  0
 17 18  1  0
 17 32  1  0
 19 33  1  0
 19 34  1  0
 19 35  1  0
 20 36  1  0
 20 37  1  0
 20 38  1  0
M  STY  8   1 DAT   2 DAT   3 DAT   4 DAT   5 DAT   6 DAT   7 DAT   8 DAT
M  STY  8   9 DAT  10 DAT  11 DAT  12 DAT  13 DAT  14 DAT  15 DAT  16 DAT
M  STY  8  17 DAT  18 DAT  19 DAT  20 DAT  21 DAT  22 DAT  23 DAT  24 DAT
M  STY  8  25 DAT  26 DAT  27 DAT  28 DAT  29 DAT  30 DAT  31 DAT  32 DAT
M  STY  6  33 DAT  34 DAT  35 DAT  36 DAT  37 DAT  38 DAT
M  SAL   1  1   1
M  SED   1 [#35&h0]
M  SAL   2  1   2
M  SED   2 [#8&h0]
M  SAL   3  1   3
M  SED   3 [#8&h0]
M  SAL   4  1   4
M  SED   4 [#7&h0]
M  SAL   5  1   5
M  SED   5 [#6&h0]
M  SAL   6  1   6
M  SED   6 [#6&h0]
M  SAL   7  1   7
M  SED   7 [#6&h0]
M  SAL   8  1   8
M  SED   8 [#6&h0]
M  SAL   9  1   9
M  SED   9 [#6&h0]
M  SAL  10  1  10
M  SED  10 [#6&h0]
M  SAL  11  1  11
M  SED  11 [#6&h0]
M  SAL  12  1  12
M  SED  12 [#6&h0]
M  SAL  13  1  13
M  SED  13 [#6&h0]
M  SAL  14  1  14
M  SED  14 [#6&h0]
M  SAL  15  1  15
M  SED  15 [#6&h0]
M  SAL  16  1  16
M  SED  16 [#6&h0]
M  SAL  17  1  17
M  SED  17 [#6&h0]
M  SAL  18  1  18
M  SED  18 [#6&h0]
M  SAL  19  1  19
M  SED  19 [#6&h0]
M  SAL  20  1  20
M  SED  20 [#6&h0]
M  SAL  21  1  21
M  SED  21 [#1&h0]
M  SAL  22  1  22
M  SED  22 [#1&h0]
M  SAL  23  1  23
M  SED  23 [#1&h0]
M  SAL  24  1  24
M  SED  24 [#1&h0]
M  SAL  25  1  25
M  SED  25 [#1&h0]
M  SAL  26  1  26
M  SED  26 [#1&h0]
M  SAL  27  1  27
M  SED  27 [#1&h0]
M  SAL  28  1  28
M  SED  28 [#1&h0]
M  SAL  29  1  29
M  SED  29 [#1&h0]
M  SAL  30  1  30
M  SED  30 [#1&h0]
M  SAL  31  1  31
M  SED  31 [#1&h0]
M  SAL  32  1  32
M  SED  32 [#1&h0]
M  SAL  33  1  33
M  SED  33 [#1&h0]
M  SAL  34  1  34
M  SED  34 [#1&h0]
M  SAL  35  1  35
M  SED  35 [#1&h0]
M  SAL  36  1  36
M  SED  36 [#1&h0]
M  SAL  37  1  37
M  SED  37 [#1&h0]
M  SAL  38  1  38
M  SED  38 [#1&h0]
M  END
>  <Activity>  (122) 
0.01

>  <Mapped(file=2032.csv.activities,property=Cached(PUBCHEM_COMPOUND_CID))>  (122) 
100

>  <MatchIndices>  (122) 
13 

>  <PUBCHEM_ATOM_DEF_STEREO_COUNT>  (122) 
0

>  <PUBCHEM_ATOM_UDEF_STEREO_COUNT>  (122) 
0

>  <PUBCHEM_BONDANNOTATIONS>  (122) 
10  13  8
10  14  8
12  18  8
12  19  8
13  16  8
14  15  8
15  17  8
16  17  8
18  20  8
19  21  8
20  22  8
21  22  8

>  <PUBCHEM_BOND_DEF_STEREO_COUNT>  (122) 
0

>  <PUBCHEM_BOND_UDEF_STEREO_COUNT>  (122) 
0

>  <PUBCHEM_CACTVS_COMPLEXITY>  (122) 
329

>  <PUBCHEM_CACTVS_HBOND_ACCEPTOR>  (122) 
7

>  <PUBCHEM_CACTVS_HBOND_DONOR>  (122) 
3

>  <PUBCHEM_CACTVS_ROTATABLE_BOND>  (122) 
7

>  <PUBCHEM_CACTVS_SUBSKEYS>  (122) 
AAADceB6OAAAEAAAAAAAAAAAAAAAAAAAAAAwYAAAAAAAAAABQAAAHgBQCAABrATBmAYyDoLABgCIAiDSCAKCCAAgIAQIiIBODKgNJyKEsRuEMChlwBWJqhew4BwOAgABCAAAAAAEAAIQAAAAAAAAAAAAAA==

>  <PUBCHEM_CACTVS_TAUTO_COUNT>  (122) 
1

>  <PUBCHEM_CACTVS_TPSA>  (122) 
105

>  <PUBCHEM_COMPONENT_COUNT>  (122) 
2

>  <PUBCHEM_COMPOUND_CANONICALIZED>  (122) 
1

>  <PUBCHEM_COMPOUND_CID>  (122) 
17367564

>  <PUBCHEM_COORDINATE_TYPE>  (122) 
1
5
255

>  <PUBCHEM_EXACT_MASS>  (122) 
425.047399

>  <PUBCHEM_HEAVY_ATOM_COUNT>  (122) 
26

>  <PUBCHEM_ISOTOPIC_ATOM_COUNT>  (122) 
0

>  <PUBCHEM_IUPAC_CAS_NAME>  (122) 
1-(4-bromophenyl)-N-[(3,5-dimethoxyphenyl)methyl]methanamine; oxalic acid

>  <PUBCHEM_IUPAC_INCHI>  (122) 
InChI=1S/C16H18BrNO2.C2H2O4/c1-19-15-7-13(8-16(9-15)20-2)11-18-10-12-3-5-14(17)6-4-12;3-1(4)2(5)6/h3-9,18H,10-11H2,1-2H3;(H,3,4)(H,5,6)

>  <PUBCHEM_IUPAC_INCHIKEY>  (122) 
LEQWTMYSKUEWCU-UHFFFAOYSA-N

>  <PUBCHEM_IUPAC_NAME>  (122) 
1-(4-bromophenyl)-N-[(3,5-dimethoxyphenyl)methyl]methanamine; oxalic acid

>  <PUBCHEM_IUPAC_OPENEYE_NAME>  (122) 
1-(4-bromophenyl)-N-[(3,5-dimethoxyphenyl)methyl]methanamine; oxalic acid

>  <PUBCHEM_IUPAC_SYSTEMATIC_NAME>  (122) 
1-(4-bromophenyl)-N-[(3,5-dimethoxyphenyl)methyl]methanamine; ethanedioic acid

>  <PUBCHEM_IUPAC_TRADITIONAL_NAME>  (122) 
(4-bromobenzyl)-(3,5-dimethoxybenzyl)amine; oxalic acid

>  <PUBCHEM_MOLECULAR_FORMULA>  (122) 
C18H20BrNO6

>  <PUBCHEM_MOLECULAR_WEIGHT>  (122) 
426.2585

>  <PUBCHEM_MONOISOTOPIC_WEIGHT>  (122) 
425.047399

>  <PUBCHEM_OPENEYE_CAN_SMILES>  (122) 
COC1=CC(=CC(=C1)CNCC2=CC=C(C=C2)Br)OC.C(=O)(C(=O)O)O

>  <PUBCHEM_OPENEYE_ISO_SMILES>  (122) 
COC1=CC(=CC(=C1)CNCC2=CC=C(C=C2)Br)OC.C(=O)(C(=O)O)O

>  <PUBCHEM_TOTAL_CHARGE>  (122) 
0

$$$$
Largest isolated from Written by BCL::WriteToMDL,3830432
     RDKit          2D

 43 44  0 43  0  0  0  0  0  0999 V2000
   -4.9528   -4.3470    0.0000 Br  0  0  0  0  0  0  0  0  0  0  0  0
    7.4760   -0.5688    0.0000 O   0  0  0  0  0  0  0  0  0  0  0  0
   -2.7511    1.8095    0.0000 N   0  0  0  0  0  0  0  0  0  0  0  0
   -1.2901    1.4697    0.0000 C   0  0  0  0  0  0  0  0  0  0  0  0
    0.1710    1.1300    0.0000 C   0  0  0  0  0  0  0  0  0  0  0  0
    1.6320    0.7902    0.0000 C   0  0  0  0  0  0  0  0  0  0  0  0
   -0.9503    2.9307    0.0000 C   0  0  0  0  0  0  0  0  0  0  0  0
   -3.7758    0.7141    0.0000 C   0  0  0  0  0  0  0  0  0  0  0  0
    3.0930    0.4505    0.0000 C   0  0  0  0  0  0  0  0  0  0  0  0
   -4.8006   -0.3813    0.0000 C   0  0  0  0  0  0  0  0  0  0  0  0
    3.5293   -0.9847    0.0000 C   0  0  0  0  0  0  0  0  0  0  0  0
    4.1177    1.5459    0.0000 C   0  0  0  0  0  0  0  0  0  0  0  0
   -4.3643   -1.8165    0.0000 C   0  0  0  0  0  0  0  0  0  0  0  0
   -6.2616   -0.0416    0.0000 C   0  0  0  0  0  0  0  0  0  0  0  0
    4.9903   -1.3245    0.0000 C   0  0  0  0  0  0  0  0  0  0  0  0
    5.5787    1.2061    0.0000 C   0  0  0  0  0  0  0  0  0  0  0  0
    6.0150   -0.2291    0.0000 C   0  0  0  0  0  0  0  0  0  0  0  0
   -5.3890   -2.9119    0.0000 C   0  0  0  0  0  0  0  0  0  0  0  0
   -7.2863   -1.1370    0.0000 C   0  0  0  0  0  0  0  0  0  0  0  0
   -6.8501   -2.5721    0.0000 C   0  0  0  0  0  0  0  0  0  0  0  0
    7.9123   -2.0040    0.0000 C   0  0  0  0  0  0  0  0  0  0  0  0
   -1.6298    0.0087    0.0000 H   0  0  0  0  0  0  0  0  0  0  0  0
    0.4752    1.9618    0.0000 H   0  0  0  0  0  0  0  0  0  0  0  0
   -0.1688   -0.3310    0.0000 H   0  0  0  0  0  0  0  0  0  0  0  0
    1.9717    2.2512    0.0000 H   0  0  0  0  0  0  0  0  0  0  0  0
    1.2922   -0.6708    0.0000 H   0  0  0  0  0  0  0  0  0  0  0  0
   -3.3590    3.1808    0.0000 H   0  0  0  0  0  0  0  0  0  0  0  0
   -2.3590    3.4461    0.0000 H   0  0  0  0  0  0  0  0  0  0  0  0
   -0.0696    2.8368    0.0000 H   0  0  0  0  0  0  0  0  0  0  0  0
   -0.6105    4.3918    0.0000 H   0  0  0  0  0  0  0  0  0  0  0  0
   -4.8712    1.7388    0.0000 H   0  0  0  0  0  0  0  0  0  0  0  0
   -2.6804   -0.3107    0.0000 H   0  0  0  0  0  0  0  0  0  0  0  0
    2.5045   -2.0801    0.0000 H   0  0  0  0  0  0  0  0  0  0  0  0
    3.6815    2.9810    0.0000 H   0  0  0  0  0  0  0  0  0  0  0  0
   -2.9033   -2.1562    0.0000 H   0  0  0  0  0  0  0  0  0  0  0  0
   -6.6979    1.3936    0.0000 H   0  0  0  0  0  0  0  0  0  0  0  0
    5.4265   -2.7596    0.0000 H   0  0  0  0  0  0  0  0  0  0  0  0
    6.6035    2.3015    0.0000 H   0  0  0  0  0  0  0  0  0  0  0  0
   -8.7473   -0.7972    0.0000 H   0  0  0  0  0  0  0  0  0  0  0  0
   -7.8748   -3.6675    0.0000 H   0  0  0  0  0  0  0  0  0  0  0  0
    9.3475   -1.5677    0.0000 H   0  0  0  0  0  0  0  0  0  0  0  0
    6.4771   -2.4402    0.0000 H   0  0  0  0  0  0  0  0  0  0  0  0
    8.3486   -3.4391    0.0000 H   0  0  0  0  0  0  0  0  0  0  0  0
  1 18  1  0
  2 17  1  0
  2 21  1  0
  3  4  1  0
  3  8  1  0
  3 27  1  0
  4  5  1  0
  4  7  1  0
  4 22  1  1
  5  6  1  0
  5 23  1  0
  5 24  1  0
  6  9  1  0
  6 25  1  0
  6 26  1  0
  7 28  1  0
  7 29  1  0
  7 30  1  0
  8 10  1  0
  8 31  1  0
  8 32  1  0
  9 11  2  0
  9 12  1  0
 10 13  2  0
 10 14  1  0
 11 15  1  0
 11 33  1  0
 12 16  2  0
 12 34  1  0
 13 18  1  0
 13 35  1  0
 14 19  2  0
 14 36  1  0
 15 17  2  0
 15 37  1  0
 16 17  1  0
 16 38  1  0
 18 20  2  0
 19 20  1  0
 19 39  1  0
 20 40  1  0
 21 41  1  0
 21 42  1  0
 21 43  1  0
M  STY  8   1 DAT   2 DAT   3 DAT   4 DAT   5 DAT   6 DAT   7 DAT   8 DAT
M  STY  8   9 DAT  10 DAT  11 DAT  12 DAT  13 DAT  14 DAT  15 DAT  16 DAT
M  STY  8  17 DAT  18 DAT  19 DAT  20 DAT  21 DAT  22 DAT  23 DAT  24 DAT
M  STY  8  25 DAT  26 DAT  27 DAT  28 DAT  29 DAT  30 DAT  31 DAT  32 DAT
M  STY  8  33 DAT  34 DAT  35 DAT  36 DAT  37 DAT  38 DAT  39 DAT  40 DAT
M  STY  3  41 DAT  42 DAT  43 DAT
M  SAL   1  1   1
M  SED   1 [#35&h0]
M  SAL   2  1   2
M  SED   2 [#8&h0]
M  SAL   3  1   3
M  SED   3 [#7&h0]
M  SAL   4  1   4
M  SED   4 [#6&h0]
M  SAL   5  1   5
M  SED   5 [#6&h0]
M  SAL   6  1   6
M  SED   6 [#6&h0]
M  SAL   7  1   7
M  SED   7 [#6&h0]
M  SAL   8  1   8
M  SED   8 [#6&h0]
M  SAL   9  1   9
M  SED   9 [#6&h0]
M  SAL  10  1  10
M  SED  10 [#6&h0]
M  SAL  11  1  11
M  SED  11 [#6&h0]
M  SAL  12  1  12
M  SED  12 [#6&h0]
M  SAL  13  1  13
M  SED  13 [#6&h0]
M  SAL  14  1  14
M  SED  14 [#6&h0]
M  SAL  15  1  15
M  SED  15 [#6&h0]
M  SAL  16  1  16
M  SED  16 [#6&h0]
M  SAL  17  1  17
M  SED  17 [#6&h0]
M  SAL  18  1  18
M  SED  18 [#6&h0]
M  SAL  19  1  19
M  SED  19 [#6&h0]
M  SAL  20  1  20
M  SED  20 [#6&h0]
M  SAL  21  1  21
M  SED  21 [#6&h0]
M  SAL  22  1  22
M  SED  22 [#1&h0]
M  SAL  23  1  23
M  SED  23 [#1&h0]
M  SAL  24  1  24
M  SED  24 [#1&h0]
M  SAL  25  1  25
M  SED  25 [#1&h0]
M  SAL  26  1  26
M  SED  26 [#1&h0]
M  SAL  27  1  27
M  SED  27 [#1&h0]
M  SAL  28  1  28
M  SED  28 [#1&h0]
M  SAL  29  1  29
M  SED  29 [#1&h0]
M  SAL  30  1  30
M  SED  30 [#1&h0]
M  SAL  31  1  31
M  SED  31 [#1&h0]
M  SAL  32  1  32
M  SED  32 [#1&h0]
M  SAL  33  1  33
M  SED  33 [#1&h0]
M  SAL  34  1  34
M  SED  34 [#1&h0]
M  SAL  35  1  35
M  SED  35 [#1&h0]
M  SAL  36  1  36
M  SED  36 [#1&h0]
M  SAL  37  1  37
M  SED  37 [#1&h0]
M  SAL  38  1  38
M  SED  38 [#1&h0]
M  SAL  39  1  39
M  SED  39 [#1&h0]
M  SAL  40  1  40
M  SED  40 [#1&h0]
M  SAL  41  1  41
M  SED  41 [#1&h0]
M  SAL  42  1  42
M  SED  42 [#1&h0]
M  SAL  43  1  43
M  SED  43 [#1&h0]
M  END
>  <Activity>  (123) 
0.01

>  <Mapped(file=2032.csv.activities,property=Cached(PUBCHEM_COMPOUND_CID))>  (123) 
100

>  <MatchIndices>  (123) 
49 

>  <PUBCHEM_ATOM_DEF_STEREO_COUNT>  (123) 
0

>  <PUBCHEM_ATOM_UDEF_STEREO_COUNT>  (123) 
1

>  <PUBCHEM_BONDANNOTATIONS>  (123) 
10  13  8
10  14  8
11  15  8
12  16  8
13  18  8
14  19  8
15  17  8
16  17  8
18  20  8
19  20  8
4  7  3
9  11  8
9  12  8

>  <PUBCHEM_BOND_DEF_STEREO_COUNT>  (123) 
0

>  <PUBCHEM_BOND_UDEF_STEREO_COUNT>  (123) 
0

>  <PUBCHEM_CACTVS_COMPLEXITY>  (123) 
278

>  <PUBCHEM_CACTVS_HBOND_ACCEPTOR>  (123) 
2

>  <PUBCHEM_CACTVS_HBOND_DONOR>  (123) 
1

>  <PUBCHEM_CACTVS_ROTATABLE_BOND>  (123) 
7

>  <PUBCHEM_CACTVS_SUBSKEYS>  (123) 
AAADceB6IAAAEAAAAAAAAAAAAAAAAAAAAAAwYAAAAAAAAAABQAAAHgBQAAABrCzBmAYyBoLABACAAiBCAACCCAAgIAQIiIAODKgMJiKEsRuEMChk0BGIqheQwKAOIAAAEAAAAABAAAAgAAAAAAAAAAAAAA==

>  <PUBCHEM_CACTVS_TAUTO_COUNT>  (123) 
1

>  <PUBCHEM_CACTVS_TPSA>  (123) 
21.3

>  <PUBCHEM_COMPONENT_COUNT>  (123) 
1

>  <PUBCHEM_COMPOUND_CANONICALIZED>  (123) 
1

>  <PUBCHEM_COMPOUND_CID>  (123) 
3830432

>  <PUBCHEM_COORDINATE_TYPE>  (123) 
1
5
255

>  <PUBCHEM_EXACT_MASS>  (123) 
347.088476

>  <PUBCHEM_HEAVY_ATOM_COUNT>  (123) 
21

>  <PUBCHEM_ISOTOPIC_ATOM_COUNT>  (123) 
0

>  <PUBCHEM_IUPAC_CAS_NAME>  (123) 
N-[(3-bromophenyl)methyl]-4-(4-methoxyphenyl)-2-butanamine

>  <PUBCHEM_IUPAC_INCHI>  (123) 
InChI=1S/C18H22BrNO/c1-14(20-13-16-4-3-5-17(19)12-16)6-7-15-8-10-18(21-2)11-9-15/h3-5,8-12,14,20H,6-7,13H2,1-2H3

>  <PUBCHEM_IUPAC_INCHIKEY>  (123) 
CDYLBYNFLUAGRB-UHFFFAOYSA-N

>  <PUBCHEM_IUPAC_NAME>  (123) 
N-[(3-bromophenyl)methyl]-4-(4-methoxyphenyl)butan-2-amine

>  <PUBCHEM_IUPAC_OPENEYE_NAME>  (123) 
N-[(3-bromophenyl)methyl]-4-(4-methoxyphenyl)butan-2-amine

>  <PUBCHEM_IUPAC_SYSTEMATIC_NAME>  (123) 
N-[(3-bromophenyl)methyl]-4-(4-methoxyphenyl)butan-2-amine

>  <PUBCHEM_IUPAC_TRADITIONAL_NAME>  (123) 
(3-bromobenzyl)-[3-(4-methoxyphenyl)-1-methyl-propyl]amine

>  <PUBCHEM_MOLECULAR_FORMULA>  (123) 
C18H22BrNO

>  <PUBCHEM_MOLECULAR_WEIGHT>  (123) 
348.27738

>  <PUBCHEM_MONOISOTOPIC_WEIGHT>  (123) 
347.088476

>  <PUBCHEM_OPENEYE_CAN_SMILES>  (123) 
CC(CCC1=CC=C(C=C1)OC)NCC2=CC(=CC=C2)Br

>  <PUBCHEM_OPENEYE_ISO_SMILES>  (123) 
CC(CCC1=CC=C(C=C1)OC)NCC2=CC(=CC=C2)Br

>  <PUBCHEM_TOTAL_CHARGE>  (123) 
0

>  <PUBCHEM_XLOGP3_AA>  (123) 
4.7

$$$$
Largest isolated from Written by BCL::WriteToMDL,656332
     RDKit          2D

 48 50  0 48  0  0  0  0  0  0999 V2000
   -1.6165   -4.1955    0.0000 S   0  0  0  0  0  0  0  0  0  0  0  0
    2.9592    0.7298    0.0000 S   0  0  0  0  0  0  0  0  0  0  0  0
   -3.9518   -0.9868    0.0000 O   0  0  0  0  0  0  0  0  0  0  0  0
   -5.4363   -3.1190    0.0000 O   0  0  0  0  0  0  0  0  0  0  0  0
    0.0235   -2.0848    0.0000 O   0  0  0  0  0  0  0  0  0  0  0  0
    1.0551   -4.2817    0.0000 N   0  0  0  0  0  0  0  0  0  0  0  0
    2.1494   -3.2557    0.0000 N   0  0  0  0  0  0  0  0  0  0  0  0
    5.2349   -0.5237    0.0000 N   0  0  0  0  0  0  0  0  0  0  0  0
    5.1826    2.0739    0.0000 N   0  0  0  0  0  0  0  0  0  0  0  0
   -5.1829   -0.1297    0.0000 C   0  0  0  0  0  0  0  0  0  0  0  0
   -4.1250    0.9338    0.0000 C   0  0  0  0  0  0  0  0  0  0  0  0
   -6.6328    0.2547    0.0000 C   0  0  0  0  0  0  0  0  0  0  0  0
   -4.5172    2.3817    0.0000 C   0  0  0  0  0  0  0  0  0  0  0  0
   -7.0249    1.7025    0.0000 C   0  0  0  0  0  0  0  0  0  0  0  0
   -5.9671    2.7660    0.0000 C   0  0  0  0  0  0  0  0  0  0  0  0
   -4.0786   -2.4814    0.0000 C   0  0  0  0  0  0  0  0  0  0  0  0
   -2.8475   -3.3385    0.0000 C   0  0  0  0  0  0  0  0  0  0  0  0
   -0.2587   -3.5580    0.0000 C   0  0  0  0  0  0  0  0  0  0  0  0
    1.5119   -1.8980    0.0000 C   0  0  0  0  0  0  0  0  0  0  0  0
    2.2355   -0.5841    0.0000 C   0  0  0  0  0  0  0  0  0  0  0  0
    6.7346   -0.4935    0.0000 C   0  0  0  0  0  0  0  0  0  0  0  0
    6.6823    2.1041    0.0000 C   0  0  0  0  0  0  0  0  0  0  0  0
    4.4589    0.7600    0.0000 C   0  0  0  0  0  0  0  0  0  0  0  0
    7.4583    0.8204    0.0000 C   0  0  0  0  0  0  0  0  0  0  0  0
    7.5106   -1.7772    0.0000 C   0  0  0  0  0  0  0  0  0  0  0  0
    7.4060    3.4179    0.0000 C   0  0  0  0  0  0  0  0  0  0  0  0
   -5.8131   -1.4908    0.0000 H   0  0  0  0  0  0  0  0  0  0  0  0
   -2.7673    1.5714    0.0000 H   0  0  0  0  0  0  0  0  0  0  0  0
   -3.2614   -0.2926    0.0000 H   0  0  0  0  0  0  0  0  0  0  0  0
   -6.7595   -1.2400    0.0000 H   0  0  0  0  0  0  0  0  0  0  0  0
   -8.1267    0.1199    0.0000 H   0  0  0  0  0  0  0  0  0  0  0  0
   -4.3904    3.8763    0.0000 H   0  0  0  0  0  0  0  0  0  0  0  0
   -3.0232    2.5164    0.0000 H   0  0  0  0  0  0  0  0  0  0  0  0
   -8.3826    1.0649    0.0000 H   0  0  0  0  0  0  0  0  0  0  0  0
   -7.8885    2.9289    0.0000 H   0  0  0  0  0  0  0  0  0  0  0  0
   -7.1981    3.6231    0.0000 H   0  0  0  0  0  0  0  0  0  0  0  0
   -5.3368    4.1272    0.0000 H   0  0  0  0  0  0  0  0  0  0  0  0
   -3.7046   -4.5695    0.0000 H   0  0  0  0  0  0  0  0  0  0  0  0
   -1.9905   -2.1074    0.0000 H   0  0  0  0  0  0  0  0  0  0  0  0
    3.5494   -1.3078    0.0000 H   0  0  0  0  0  0  0  0  0  0  0  0
    0.9217    0.1396    0.0000 H   0  0  0  0  0  0  0  0  0  0  0  0
    8.9580    0.8506    0.0000 H   0  0  0  0  0  0  0  0  0  0  0  0
    8.7943   -1.0012    0.0000 H   0  0  0  0  0  0  0  0  0  0  0  0
    6.2270   -2.5532    0.0000 H   0  0  0  0  0  0  0  0  0  0  0  0
    8.2866   -3.0608    0.0000 H   0  0  0  0  0  0  0  0  0  0  0  0
    6.0922    4.1416    0.0000 H   0  0  0  0  0  0  0  0  0  0  0  0
    8.7199    2.6942    0.0000 H   0  0  0  0  0  0  0  0  0  0  0  0
    8.1297    4.7318    0.0000 H   0  0  0  0  0  0  0  0  0  0  0  0
  1 17  1  0
  1 18  1  0
  2 20  1  0
  2 23  1  0
  3 10  1  0
  3 16  1  0
  4 16  2  0
  5 18  1  0
  5 19  1  0
  6  7  1  0
  6 18  2  0
  7 19  2  0
  8 21  2  0
  8 23  1  0
  9 22  1  0
  9 23  2  0
 10 11  1  0
 10 12  1  0
 10 27  1  0
 11 13  1  0
 11 28  1  0
 11 29  1  0
 12 14  1  0
 12 30  1  0
 12 31  1  0
 13 15  1  0
 13 32  1  0
 13 33  1  0
 14 15  1  0
 14 34  1  0
 14 35  1  0
 15 36  1  0
 15 37  1  0
 16 17  1  0
 17 38  1  0
 17 39  1  0
 19 20  1  0
 20 40  1  0
 20 41  1  0
 21 24  1  0
 21 25  1  0
 22 24  2  0
 22 26  1  0
 24 42  1  0
 25 43  1  0
 25 44  1  0
 25 45  1  0
 26 46  1  0
 26 47  1  0
 26 48  1  0
M  STY  8   1 DAT   2 DAT   3 DAT   4 DAT   5 DAT   6 DAT   7 DAT   8 DAT
M  STY  8   9 DAT  10 DAT  11 DAT  12 DAT  13 DAT  14 DAT  15 DAT  16 DAT
M  STY  8  17 DAT  18 DAT  19 DAT  20 DAT  21 DAT  22 DAT  23 DAT  24 DAT
M  STY  8  25 DAT  26 DAT  27 DAT  28 DAT  29 DAT  30 DAT  31 DAT  32 DAT
M  STY  8  33 DAT  34 DAT  35 DAT  36 DAT  37 DAT  38 DAT  39 DAT  40 DAT
M  STY  8  41 DAT  42 DAT  43 DAT  44 DAT  45 DAT  46 DAT  47 DAT  48 DAT
M  SAL   1  1   1
M  SED   1 [#16&h0]
M  SAL   2  1   2
M  SED   2 [#16&h0]
M  SAL   3  1   3
M  SED   3 [#8&h0]
M  SAL   4  1   4
M  SED   4 [#8&h0]
M  SAL   5  1   5
M  SED   5 [#8&h0]
M  SAL   6  1   6
M  SED   6 [#7&h0]
M  SAL   7  1   7
M  SED   7 [#7&h0]
M  SAL   8  1   8
M  SED   8 [#7&h0]
M  SAL   9  1   9
M  SED   9 [#7&h0]
M  SAL  10  1  10
M  SED  10 [#6&h0]
M  SAL  11  1  11
M  SED  11 [#6&h0]
M  SAL  12  1  12
M  SED  12 [#6&h0]
M  SAL  13  1  13
M  SED  13 [#6&h0]
M  SAL  14  1  14
M  SED  14 [#6&h0]
M  SAL  15  1  15
M  SED  15 [#6&h0]
M  SAL  16  1  16
M  SED  16 [#6&h0]
M  SAL  17  1  17
M  SED  17 [#6&h0]
M  SAL  18  1  18
M  SED  18 [#6&h0]
M  SAL  19  1  19
M  SED  19 [#6&h0]
M  SAL  20  1  20
M  SED  20 [#6&h0]
M  SAL  21  1  21
M  SED  21 [#6&h0]
M  SAL  22  1  22
M  SED  22 [#6&h0]
M  SAL  23  1  23
M  SED  23 [#6&h0]
M  SAL  24  1  24
M  SED  24 [#6&h0]
M  SAL  25  1  25
M  SED  25 [#6&h0]
M  SAL  26  1  26
M  SED  26 [#6&h0]
M  SAL  27  1  27
M  SED  27 [#1&h0]
M  SAL  28  1  28
M  SED  28 [#1&h0]
M  SAL  29  1  29
M  SED  29 [#1&h0]
M  SAL  30  1  30
M  SED  30 [#1&h0]
M  SAL  31  1  31
M  SED  31 [#1&h0]
M  SAL  32  1  32
M  SED  32 [#1&h0]
M  SAL  33  1  33
M  SED  33 [#1&h0]
M  SAL  34  1  34
M  SED  34 [#1&h0]
M  SAL  35  1  35
M  SED  35 [#1&h0]
M  SAL  36  1  36
M  SED  36 [#1&h0]
M  SAL  37  1  37
M  SED  37 [#1&h0]
M  SAL  38  1  38
M  SED  38 [#1&h0]
M  SAL  39  1  39
M  SED  39 [#1&h0]
M  SAL  40  1  40
M  SED  40 [#1&h0]
M  SAL  41  1  41
M  SED  41 [#1&h0]
M  SAL  42  1  42
M  SED  42 [#1&h0]
M  SAL  43  1  43
M  SED  43 [#1&h0]
M  SAL  44  1  44
M  SED  44 [#1&h0]
M  SAL  45  1  45
M  SED  45 [#1&h0]
M  SAL  46  1  46
M  SED  46 [#1&h0]
M  SAL  47  1  47
M  SED  47 [#1&h0]
M  SAL  48  1  48
M  SED  48 [#1&h0]
M  END
>  <Activity>  (124) 
0.01

>  <Mapped(file=2032.csv.activities,property=Cached(PUBCHEM_COMPOUND_CID))>  (124) 
100

>  <MatchIndices>  (124) 
4 

>  <PUBCHEM_ATOM_DEF_STEREO_COUNT>  (124) 
0

>  <PUBCHEM_ATOM_UDEF_STEREO_COUNT>  (124) 
0

>  <PUBCHEM_BONDANNOTATIONS>  (124) 
21  24  8
22  24  8
5  18  8
5  19  8
6  18  8
6  7  8
7  19  8
8  21  8
8  23  8
9  22  8
9  23  8

>  <PUBCHEM_BOND_DEF_STEREO_COUNT>  (124) 
0

>  <PUBCHEM_BOND_UDEF_STEREO_COUNT>  (124) 
0

>  <PUBCHEM_CACTVS_COMPLEXITY>  (124) 
444

>  <PUBCHEM_CACTVS_HBOND_ACCEPTOR>  (124) 
5

>  <PUBCHEM_CACTVS_HBOND_DONOR>  (124) 
0

>  <PUBCHEM_CACTVS_ROTATABLE_BOND>  (124) 
8

>  <PUBCHEM_CACTVS_SUBSKEYS>  (124) 
AAADceB7sABgAAAAAAAAAAAAAAAAAWAAAAA8QAAAAAAAAAAB4AAAHgQIAAAACByl1gKzmJYIFEiqASXyfACQ0ClpArATGCAwZBiAKAJAydAOBAhsCAJISCOAQAAAAAAAAAAAAAAAAAAAAAAAAAAAAAAAAA==

>  <PUBCHEM_CACTVS_TAUTO_COUNT>  (124) 
1

>  <PUBCHEM_CACTVS_TPSA>  (124) 
142

>  <PUBCHEM_COMPONENT_COUNT>  (124) 
1

>  <PUBCHEM_COMPOUND_CANONICALIZED>  (124) 
1

>  <PUBCHEM_COMPOUND_CID>  (124) 
656332

>  <PUBCHEM_COORDINATE_TYPE>  (124) 
1
5
255

>  <PUBCHEM_EXACT_MASS>  (124) 
394.113333

>  <PUBCHEM_HEAVY_ATOM_COUNT>  (124) 
26

>  <PUBCHEM_ISOTOPIC_ATOM_COUNT>  (124) 
0

>  <PUBCHEM_IUPAC_CAS_NAME>  (124) 
2-[[5-[[(4,6-dimethyl-2-pyrimidinyl)thio]methyl]-1,3,4-oxadiazol-2-yl]thio]acetic acid cyclohexyl ester

>  <PUBCHEM_IUPAC_INCHI>  (124) 
InChI=1S/C17H22N4O3S2/c1-11-8-12(2)19-16(18-11)25-9-14-20-21-17(24-14)26-10-15(22)23-13-6-4-3-5-7-13/h8,13H,3-7,9-10H2,1-2H3

>  <PUBCHEM_IUPAC_INCHIKEY>  (124) 
MOBVEOYFWXRYPX-UHFFFAOYSA-N

>  <PUBCHEM_IUPAC_NAME>  (124) 
cyclohexyl 2-[[5-[(4,6-dimethylpyrimidin-2-yl)sulfanylmethyl]-1,3,4-oxadiazol-2-yl]sulfanyl]acetate

>  <PUBCHEM_IUPAC_OPENEYE_NAME>  (124) 
cyclohexyl 2-[[5-[(4,6-dimethylpyrimidin-2-yl)sulfanylmethyl]-1,3,4-oxadiazol-2-yl]sulfanyl]acetate

>  <PUBCHEM_IUPAC_SYSTEMATIC_NAME>  (124) 
cyclohexyl 2-[[5-[(4,6-dimethylpyrimidin-2-yl)sulfanylmethyl]-1,3,4-oxadiazol-2-yl]sulfanyl]ethanoate

>  <PUBCHEM_IUPAC_TRADITIONAL_NAME>  (124) 
2-[[5-[[(4,6-dimethylpyrimidin-2-yl)thio]methyl]-1,3,4-oxadiazol-2-yl]thio]acetic acid cyclohexyl ester

>  <PUBCHEM_MOLECULAR_FORMULA>  (124) 
C17H22N4O3S2

>  <PUBCHEM_MOLECULAR_WEIGHT>  (124) 
394.51158

>  <PUBCHEM_MONOISOTOPIC_WEIGHT>  (124) 
394.113333

>  <PUBCHEM_OPENEYE_CAN_SMILES>  (124) 
CC1=CC(=NC(=N1)SCC2=NN=C(O2)SCC(=O)OC3CCCCC3)C

>  <PUBCHEM_OPENEYE_ISO_SMILES>  (124) 
CC1=CC(=NC(=N1)SCC2=NN=C(O2)SCC(=O)OC3CCCCC3)C

>  <PUBCHEM_TOTAL_CHARGE>  (124) 
0

>  <PUBCHEM_XLOGP3_AA>  (124) 
3.8

$$$$
Largest isolated from Written by BCL::WriteToMDL,2805173
     RDKit          2D

 33 35  0 33  0  0  0  0  0  0999 V2000
    4.3680   -2.5844    0.0000 Cl  0  0  0  0  0  0  0  0  0  0  0  0
    0.2147   -3.4015    0.0000 O   0  0  0  0  0  0  0  0  0  0  0  0
    0.4374    1.5627    0.0000 O   0  0  0  0  0  0  0  0  0  0  0  0
    1.6328   -2.9128    0.0000 N   0  0  0  0  0  0  0  0  0  0  0  0
    0.1716   -0.9749    0.0000 C   0  0  0  0  0  0  0  0  0  0  0  0
    1.6062   -1.4130    0.0000 C   0  0  0  0  0  0  0  0  0  0  0  0
    2.8039   -0.5099    0.0000 C   0  0  0  0  0  0  0  0  0  0  0  0
   -0.6884   -2.2039    0.0000 C   0  0  0  0  0  0  0  0  0  0  0  0
   -0.3172    0.4433    0.0000 C   0  0  0  0  0  0  0  0  0  0  0  0
   -1.7897    0.7290    0.0000 C   0  0  0  0  0  0  0  0  0  0  0  0
    4.1848   -1.0956    0.0000 C   0  0  0  0  0  0  0  0  0  0  0  0
    2.6206    0.9788    0.0000 C   0  0  0  0  0  0  0  0  0  0  0  0
   -2.1882   -2.2305    0.0000 C   0  0  0  0  0  0  0  0  0  0  0  0
   -2.2785    2.1472    0.0000 C   0  0  0  0  0  0  0  0  0  0  0  0
   -2.7735   -0.4033    0.0000 C   0  0  0  0  0  0  0  0  0  0  0  0
    5.3825   -0.1925    0.0000 C   0  0  0  0  0  0  0  0  0  0  0  0
    3.8183    1.8819    0.0000 C   0  0  0  0  0  0  0  0  0  0  0  0
    5.1992    1.2962    0.0000 C   0  0  0  0  0  0  0  0  0  0  0  0
   -3.7510    2.4330    0.0000 C   0  0  0  0  0  0  0  0  0  0  0  0
   -4.2460   -0.1175    0.0000 C   0  0  0  0  0  0  0  0  0  0  0  0
   -4.7348    1.3006    0.0000 C   0  0  0  0  0  0  0  0  0  0  0  0
    1.4513    1.6535    0.0000 H   0  0  0  0  0  0  0  0  0  0  0  0
   -2.1616   -3.7302    0.0000 H   0  0  0  0  0  0  0  0  0  0  0  0
   -2.3948   -1.4605    0.0000 H   0  0  0  0  0  0  0  0  0  0  0  0
   -3.6879   -2.2571    0.0000 H   0  0  0  0  0  0  0  0  0  0  0  0
   -1.2947    3.2795    0.0000 H   0  0  0  0  0  0  0  0  0  0  0  0
   -2.7038   -1.1974    0.0000 H   0  0  0  0  0  0  0  0  0  0  0  0
    6.7634   -0.7782    0.0000 H   0  0  0  0  0  0  0  0  0  0  0  0
    3.6351    3.3707    0.0000 H   0  0  0  0  0  0  0  0  0  0  0  0
    6.3969    2.1993    0.0000 H   0  0  0  0  0  0  0  0  0  0  0  0
   -4.2398    3.8511    0.0000 H   0  0  0  0  0  0  0  0  0  0  0  0
   -5.2297   -1.2499    0.0000 H   0  0  0  0  0  0  0  0  0  0  0  0
   -6.2073    1.5864    0.0000 H   0  0  0  0  0  0  0  0  0  0  0  0
  1 11  1  0
  2  4  1  0
  2  8  1  0
  3  9  2  0
  4  6  2  0
  5  6  1  0
  5  8  2  0
  5  9  1  0
  6  7  1  0
  7 11  2  0
  7 12  1  0
  8 13  1  0
  9 10  1  0
 10 14  2  0
 10 15  1  0
 11 16  1  0
 12 17  2  0
 12 22  1  0
 13 23  1  0
 13 24  1  0
 13 25  1  0
 14 19  1  0
 14 26  1  0
 15 20  2  0
 15 27  1  0
 16 18  2  0
 16 28  1  0
 17 18  1  0
 17 29  1  0
 18 30  1  0
 19 21  2  0
 19 31  1  0
 20 21  1  0
 20 32  1  0
 21 33  1  0
M  STY  8   1 DAT   2 DAT   3 DAT   4 DAT   5 DAT   6 DAT   7 DAT   8 DAT
M  STY  8   9 DAT  10 DAT  11 DAT  12 DAT  13 DAT  14 DAT  15 DAT  16 DAT
M  STY  8  17 DAT  18 DAT  19 DAT  20 DAT  21 DAT  22 DAT  23 DAT  24 DAT
M  STY  8  25 DAT  26 DAT  27 DAT  28 DAT  29 DAT  30 DAT  31 DAT  32 DAT
M  STY  1  33 DAT
M  SAL   1  1   1
M  SED   1 [#17&h0]
M  SAL   2  1   2
M  SED   2 [#8&h0]
M  SAL   3  1   3
M  SED   3 [#8&h0]
M  SAL   4  1   4
M  SED   4 [#7&h0]
M  SAL   5  1   5
M  SED   5 [#6&h0]
M  SAL   6  1   6
M  SED   6 [#6&h0]
M  SAL   7  1   7
M  SED   7 [#6&h0]
M  SAL   8  1   8
M  SED   8 [#6&h0]
M  SAL   9  1   9
M  SED   9 [#6&h0]
M  SAL  10  1  10
M  SED  10 [#6&h0]
M  SAL  11  1  11
M  SED  11 [#6&h0]
M  SAL  12  1  12
M  SED  12 [#6&h0]
M  SAL  13  1  13
M  SED  13 [#6&h0]
M  SAL  14  1  14
M  SED  14 [#6&h0]
M  SAL  15  1  15
M  SED  15 [#6&h0]
M  SAL  16  1  16
M  SED  16 [#6&h0]
M  SAL  17  1  17
M  SED  17 [#6&h0]
M  SAL  18  1  18
M  SED  18 [#6&h0]
M  SAL  19  1  19
M  SED  19 [#6&h0]
M  SAL  20  1  20
M  SED  20 [#6&h0]
M  SAL  21  1  21
M  SED  21 [#6&h0]
M  SAL  22  1  22
M  SED  22 [#1&h0]
M  SAL  23  1  23
M  SED  23 [#1&h0]
M  SAL  24  1  24
M  SED  24 [#1&h0]
M  SAL  25  1  25
M  SED  25 [#1&h0]
M  SAL  26  1  26
M  SED  26 [#1&h0]
M  SAL  27  1  27
M  SED  27 [#1&h0]
M  SAL  28  1  28
M  SED  28 [#1&h0]
M  SAL  29  1  29
M  SED  29 [#1&h0]
M  SAL  30  1  30
M  SED  30 [#1&h0]
M  SAL  31  1  31
M  SED  31 [#1&h0]
M  SAL  32  1  32
M  SED  32 [#1&h0]
M  SAL  33  1  33
M  SED  33 [#1&h0]
M  END
>  <Activity>  (125) 
0.01

>  <Mapped(file=2032.csv.activities,property=Cached(PUBCHEM_COMPOUND_CID))>  (125) 
100

>  <MatchIndices>  (125) 
181 

>  <PUBCHEM_ATOM_DEF_STEREO_COUNT>  (125) 
0

>  <PUBCHEM_ATOM_UDEF_STEREO_COUNT>  (125) 
0

>  <PUBCHEM_BONDANNOTATIONS>  (125) 
10  14  8
10  15  8
11  16  8
12  17  8
14  19  8
15  20  8
16  18  8
17  18  8
19  21  8
2  4  8
2  8  8
20  21  8
4  6  8
5  6  8
5  8  8
7  11  8
7  12  8

>  <PUBCHEM_BOND_DEF_STEREO_COUNT>  (125) 
0

>  <PUBCHEM_BOND_UDEF_STEREO_COUNT>  (125) 
0

>  <PUBCHEM_CACTVS_COMPLEXITY>  (125) 
370

>  <PUBCHEM_CACTVS_HBOND_ACCEPTOR>  (125) 
3

>  <PUBCHEM_CACTVS_HBOND_DONOR>  (125) 
0

>  <PUBCHEM_CACTVS_ROTATABLE_BOND>  (125) 
3

>  <PUBCHEM_CACTVS_SUBSKEYS>  (125) 
AAADccB6MAAEAAAAAAAAAAAAAAAAAWAAAAAwYAAAAAAAAAAB0AAAHgIEAAAADA6BniAyhJAQAACpA6RyQgCCAAAkJQAomCEkTtoIJr6Jl5OAMcBmoBgIyceYyOCOAAAAAAABAAAAAAAAAAIAAAAAAAAAAA==

>  <PUBCHEM_CACTVS_TAUTO_COUNT>  (125) 
1

>  <PUBCHEM_CACTVS_TPSA>  (125) 
43.1

>  <PUBCHEM_COMPONENT_COUNT>  (125) 
1

>  <PUBCHEM_COMPOUND_CANONICALIZED>  (125) 
1

>  <PUBCHEM_COMPOUND_CID>  (125) 
2805173

>  <PUBCHEM_COORDINATE_TYPE>  (125) 
1
5
255

>  <PUBCHEM_EXACT_MASS>  (125) 
297.055656

>  <PUBCHEM_HEAVY_ATOM_COUNT>  (125) 
21

>  <PUBCHEM_ISOTOPIC_ATOM_COUNT>  (125) 
0

>  <PUBCHEM_IUPAC_CAS_NAME>  (125) 
[3-(2-chlorophenyl)-5-methyl-4-isoxazolyl]-phenylmethanone

>  <PUBCHEM_IUPAC_INCHI>  (125) 
InChI=1S/C17H12ClNO2/c1-11-15(17(20)12-7-3-2-4-8-12)16(19-21-11)13-9-5-6-10-14(13)18/h2-10H,1H3

>  <PUBCHEM_IUPAC_INCHIKEY>  (125) 
VFCULKCUMBHRKF-UHFFFAOYSA-N

>  <PUBCHEM_IUPAC_NAME>  (125) 
[3-(2-chlorophenyl)-5-methyl-1,2-oxazol-4-yl]-phenylmethanone

>  <PUBCHEM_IUPAC_OPENEYE_NAME>  (125) 
[3-(2-chlorophenyl)-5-methyl-isoxazol-4-yl]-phenyl-methanone

>  <PUBCHEM_IUPAC_SYSTEMATIC_NAME>  (125) 
[3-(2-chlorophenyl)-5-methyl-1,2-oxazol-4-yl]-phenyl-methanone

>  <PUBCHEM_IUPAC_TRADITIONAL_NAME>  (125) 
[3-(2-chlorophenyl)-5-methyl-isoxazol-4-yl]-phenyl-methanone

>  <PUBCHEM_MOLECULAR_FORMULA>  (125) 
C17H12ClNO2

>  <PUBCHEM_MOLECULAR_WEIGHT>  (125) 
297.73568

>  <PUBCHEM_MONOISOTOPIC_WEIGHT>  (125) 
297.055656

>  <PUBCHEM_OPENEYE_CAN_SMILES>  (125) 
CC1=C(C(=NO1)C2=CC=CC=C2Cl)C(=O)C3=CC=CC=C3

>  <PUBCHEM_OPENEYE_ISO_SMILES>  (125) 
CC1=C(C(=NO1)C2=CC=CC=C2Cl)C(=O)C3=CC=CC=C3

>  <PUBCHEM_TOTAL_CHARGE>  (125) 
0

>  <PUBCHEM_XLOGP3_AA>  (125) 
4.4

$$$$
Largest isolated from Written by BCL::WriteToMDL,2337473
     RDKit          2D

 36 38  0 36  0  0  0  0  0  0999 V2000
    1.8171    0.0131    0.0000 S   0  0  0  0  0  0  0  0  0  0  0  0
    1.4087   -1.4302    0.0000 O   0  0  0  0  0  0  0  0  0  0  0  0
    2.3984    1.3959    0.0000 O   0  0  0  0  0  0  0  0  0  0  0  0
   -0.7474   -2.0050    0.0000 O   0  0  0  0  0  0  0  0  0  0  0  0
   -2.0515    0.3284    0.0000 N   0  0  0  0  0  0  0  0  0  0  0  0
   -1.6431    1.7717    0.0000 N   0  0  0  0  0  0  0  0  0  0  0  0
    0.3738    0.4215    0.0000 C   0  0  0  0  0  0  0  0  0  0  0  0
   -0.1442    1.8293    0.0000 C   0  0  0  0  0  0  0  0  0  0  0  0
   -0.8050   -0.5061    0.0000 C   0  0  0  0  0  0  0  0  0  0  0  0
    3.2604   -0.3953    0.0000 C   0  0  0  0  0  0  0  0  0  0  0  0
   -3.4592   -0.1896    0.0000 C   0  0  0  0  0  0  0  0  0  0  0  0
    0.6903    3.0757    0.0000 C   0  0  0  0  0  0  0  0  0  0  0  0
    4.3358    0.6504    0.0000 C   0  0  0  0  0  0  0  0  0  0  0  0
    3.6284   -1.8495    0.0000 C   0  0  0  0  0  0  0  0  0  0  0  0
   -4.6116    0.7706    0.0000 C   0  0  0  0  0  0  0  0  0  0  0  0
   -3.7145   -1.6677    0.0000 C   0  0  0  0  0  0  0  0  0  0  0  0
    5.7791    0.2420    0.0000 C   0  0  0  0  0  0  0  0  0  0  0  0
    5.0717   -2.2579    0.0000 C   0  0  0  0  0  0  0  0  0  0  0  0
   -6.0194    0.2526    0.0000 C   0  0  0  0  0  0  0  0  0  0  0  0
   -5.1223   -2.1856    0.0000 C   0  0  0  0  0  0  0  0  0  0  0  0
    6.1471   -1.2122    0.0000 C   0  0  0  0  0  0  0  0  0  0  0  0
   -6.2747   -1.2255    0.0000 C   0  0  0  0  0  0  0  0  0  0  0  0
   -2.5707    2.9505    0.0000 H   0  0  0  0  0  0  0  0  0  0  0  0
    2.0292    2.3995    0.0000 H   0  0  0  0  0  0  0  0  0  0  0  0
   -0.5562    3.9102    0.0000 H   0  0  0  0  0  0  0  0  0  0  0  0
    1.5247    4.3222    0.0000 H   0  0  0  0  0  0  0  0  0  0  0  0
    3.9678    2.1046    0.0000 H   0  0  0  0  0  0  0  0  0  0  0  0
    2.5530   -2.8952    0.0000 H   0  0  0  0  0  0  0  0  0  0  0  0
   -4.3563    2.2487    0.0000 H   0  0  0  0  0  0  0  0  0  0  0  0
   -2.5621   -2.6279    0.0000 H   0  0  0  0  0  0  0  0  0  0  0  0
    6.8545    1.2878    0.0000 H   0  0  0  0  0  0  0  0  0  0  0  0
    5.4397   -3.7121    0.0000 H   0  0  0  0  0  0  0  0  0  0  0  0
   -7.1718    1.2128    0.0000 H   0  0  0  0  0  0  0  0  0  0  0  0
   -5.3776   -3.6638    0.0000 H   0  0  0  0  0  0  0  0  0  0  0  0
    7.5904   -1.6206    0.0000 H   0  0  0  0  0  0  0  0  0  0  0  0
   -7.6824   -1.7434    0.0000 H   0  0  0  0  0  0  0  0  0  0  0  0
  1  2  2  0
  1  3  2  0
  1  7  1  0
  1 10  1  0
  4  9  2  0
  5  6  1  0
  5  9  1  0
  5 11  1  0
  6  8  1  0
  6 23  1  0
  7  8  2  0
  7  9  1  0
  8 12  1  0
 10 13  2  0
 10 14  1  0
 11 15  2  0
 11 16  1  0
 12 24  1  0
 12 25  1  0
 12 26  1  0
 13 17  1  0
 13 27  1  0
 14 18  2  0
 14 28  1  0
 15 19  1  0
 15 29  1  0
 16 20  2  0
 16 30  1  0
 17 21  2  0
 17 31  1  0
 18 21  1  0
 18 32  1  0
 19 22  2  0
 19 33  1  0
 20 22  1  0
 20 34  1  0
 21 35  1  0
 22 36  1  0
M  STY  8   1 DAT   2 DAT   3 DAT   4 DAT   5 DAT   6 DAT   7 DAT   8 DAT
M  STY  8   9 DAT  10 DAT  11 DAT  12 DAT  13 DAT  14 DAT  15 DAT  16 DAT
M  STY  8  17 DAT  18 DAT  19 DAT  20 DAT  21 DAT  22 DAT  23 DAT  24 DAT
M  STY  8  25 DAT  26 DAT  27 DAT  28 DAT  29 DAT  30 DAT  31 DAT  32 DAT
M  STY  4  33 DAT  34 DAT  35 DAT  36 DAT
M  SAL   1  1   1
M  SED   1 [#16&h0]
M  SAL   2  1   2
M  SED   2 [#8&h0]
M  SAL   3  1   3
M  SED   3 [#8&h0]
M  SAL   4  1   4
M  SED   4 [#8&h0]
M  SAL   5  1   5
M  SED   5 [#7&h0]
M  SAL   6  1   6
M  SED   6 [#7&h0]
M  SAL   7  1   7
M  SED   7 [#6&h0]
M  SAL   8  1   8
M  SED   8 [#6&h0]
M  SAL   9  1   9
M  SED   9 [#6&h0]
M  SAL  10  1  10
M  SED  10 [#6&h0]
M  SAL  11  1  11
M  SED  11 [#6&h0]
M  SAL  12  1  12
M  SED  12 [#6&h0]
M  SAL  13  1  13
M  SED  13 [#6&h0]
M  SAL  14  1  14
M  SED  14 [#6&h0]
M  SAL  15  1  15
M  SED  15 [#6&h0]
M  SAL  16  1  16
M  SED  16 [#6&h0]
M  SAL  17  1  17
M  SED  17 [#6&h0]
M  SAL  18  1  18
M  SED  18 [#6&h0]
M  SAL  19  1  19
M  SED  19 [#6&h0]
M  SAL  20  1  20
M  SED  20 [#6&h0]
M  SAL  21  1  21
M  SED  21 [#6&h0]
M  SAL  22  1  22
M  SED  22 [#6&h0]
M  SAL  23  1  23
M  SED  23 [#1&h0]
M  SAL  24  1  24
M  SED  24 [#1&h0]
M  SAL  25  1  25
M  SED  25 [#1&h0]
M  SAL  26  1  26
M  SED  26 [#1&h0]
M  SAL  27  1  27
M  SED  27 [#1&h0]
M  SAL  28  1  28
M  SED  28 [#1&h0]
M  SAL  29  1  29
M  SED  29 [#1&h0]
M  SAL  30  1  30
M  SED  30 [#1&h0]
M  SAL  31  1  31
M  SED  31 [#1&h0]
M  SAL  32  1  32
M  SED  32 [#1&h0]
M  SAL  33  1  33
M  SED  33 [#1&h0]
M  SAL  34  1  34
M  SED  34 [#1&h0]
M  SAL  35  1  35
M  SED  35 [#1&h0]
M  SAL  36  1  36
M  SED  36 [#1&h0]
M  END
>  <Activity>  (126) 
0.01

>  <Mapped(file=2032.csv.activities,property=Cached(PUBCHEM_COMPOUND_CID))>  (126) 
100

>  <MatchIndices>  (126) 
20 

>  <PUBCHEM_ATOM_DEF_STEREO_COUNT>  (126) 
0

>  <PUBCHEM_ATOM_UDEF_STEREO_COUNT>  (126) 
0

>  <PUBCHEM_BONDANNOTATIONS>  (126) 
10  13  8
10  14  8
11  15  8
11  16  8
13  17  8
14  18  8
15  19  8
16  20  8
17  21  8
18  21  8
19  22  8
20  22  8
5  6  8
5  9  8
6  8  8
7  8  8
7  9  8

>  <PUBCHEM_BOND_DEF_STEREO_COUNT>  (126) 
0

>  <PUBCHEM_BOND_UDEF_STEREO_COUNT>  (126) 
0

>  <PUBCHEM_CACTVS_COMPLEXITY>  (126) 
565

>  <PUBCHEM_CACTVS_HBOND_ACCEPTOR>  (126) 
4

>  <PUBCHEM_CACTVS_HBOND_DONOR>  (126) 
1

>  <PUBCHEM_CACTVS_ROTATABLE_BOND>  (126) 
3

>  <PUBCHEM_CACTVS_SUBSKEYS>  (126) 
AAADccB7MABAAAAAAAAAAAAAAAAAAQAAAAAwYAAAAAAAAAABQAAAHgQYAAAACAiB0AAywYJiAAqIACVSUHDCBAAhChAaqBgAZMgIICLgkZGEIAhglADoyUcQAAAAAAAAAAAAAAAAAAAAAAAAAAAAAAAAAA==

>  <PUBCHEM_CACTVS_TAUTO_COUNT>  (126) 
3

>  <PUBCHEM_CACTVS_TPSA>  (126) 
74.9

>  <PUBCHEM_COMPONENT_COUNT>  (126) 
1

>  <PUBCHEM_COMPOUND_CANONICALIZED>  (126) 
1

>  <PUBCHEM_COMPOUND_CID>  (126) 
2337473

>  <PUBCHEM_COORDINATE_TYPE>  (126) 
1
5
255

>  <PUBCHEM_EXACT_MASS>  (126) 
314.072513

>  <PUBCHEM_HEAVY_ATOM_COUNT>  (126) 
22

>  <PUBCHEM_ISOTOPIC_ATOM_COUNT>  (126) 
0

>  <PUBCHEM_IUPAC_CAS_NAME>  (126) 
4-(benzenesulfonyl)-5-methyl-2-phenyl-1H-pyrazol-3-one

>  <PUBCHEM_IUPAC_INCHI>  (126) 
InChI=1S/C16H14N2O3S/c1-12-15(22(20,21)14-10-6-3-7-11-14)16(19)18(17-12)13-8-4-2-5-9-13/h2-11,17H,1H3

>  <PUBCHEM_IUPAC_INCHIKEY>  (126) 
JSQKXEMSJFOMJM-UHFFFAOYSA-N

>  <PUBCHEM_IUPAC_NAME>  (126) 
4-(benzenesulfonyl)-5-methyl-2-phenyl-1H-pyrazol-3-one

>  <PUBCHEM_IUPAC_OPENEYE_NAME>  (126) 
4-(benzenesulfonyl)-5-methyl-2-phenyl-1H-pyrazol-3-one

>  <PUBCHEM_IUPAC_SYSTEMATIC_NAME>  (126) 
5-methyl-2-phenyl-4-(phenylsulfonyl)-1H-pyrazol-3-one

>  <PUBCHEM_IUPAC_TRADITIONAL_NAME>  (126) 
4-besyl-5-methyl-2-phenyl-3-pyrazolin-3-one

>  <PUBCHEM_MOLECULAR_FORMULA>  (126) 
C16H14N2O3S

>  <PUBCHEM_MOLECULAR_WEIGHT>  (126) 
314.35896

>  <PUBCHEM_MONOISOTOPIC_WEIGHT>  (126) 
314.072513

>  <PUBCHEM_OPENEYE_CAN_SMILES>  (126) 
CC1=C(C(=O)N(N1)C2=CC=CC=C2)S(=O)(=O)C3=CC=CC=C3

>  <PUBCHEM_OPENEYE_ISO_SMILES>  (126) 
CC1=C(C(=O)N(N1)C2=CC=CC=C2)S(=O)(=O)C3=CC=CC=C3

>  <PUBCHEM_TOTAL_CHARGE>  (126) 
0

>  <PUBCHEM_XLOGP3_AA>  (126) 
2.9

$$$$
Largest isolated from Written by BCL::WriteToMDL,2998207
     RDKit          2D

 32 34  0 32  0  0  0  0  0  0999 V2000
    6.5862   -1.7524    0.0000 Cl  0  0  0  0  0  0  0  0  0  0  0  0
    1.0220    0.4924    0.0000 S   0  0  0  0  0  0  0  0  0  0  0  0
   -2.7903    1.2217    0.0000 S   0  0  0  0  0  0  0  0  0  0  0  0
   -2.5097   -2.2698    0.0000 O   0  0  0  0  0  0  0  0  0  0  0  0
    1.5832    1.8834    0.0000 O   0  0  0  0  0  0  0  0  0  0  0  0
    0.4608   -0.8987    0.0000 O   0  0  0  0  0  0  0  0  0  0  0  0
   -0.3691    1.0536    0.0000 N   0  0  0  0  0  0  0  0  0  0  0  0
   -1.6408    0.2581    0.0000 C   0  0  0  0  0  0  0  0  0  0  0  0
   -0.7327    2.5089    0.0000 C   0  0  0  0  0  0  0  0  0  0  0  0
   -2.2291    2.6127    0.0000 C   0  0  0  0  0  0  0  0  0  0  0  0
   -2.7192   -0.7845    0.0000 C   0  0  0  0  0  0  0  0  0  0  0  0
    2.4130   -0.0688    0.0000 C   0  0  0  0  0  0  0  0  0  0  0  0
   -4.1966   -0.5247    0.0000 C   0  0  0  0  0  0  0  0  0  0  0  0
    2.6226   -1.5541    0.0000 C   0  0  0  0  0  0  0  0  0  0  0  0
    3.5946    0.8553    0.0000 C   0  0  0  0  0  0  0  0  0  0  0  0
   -4.9001   -1.8495    0.0000 C   0  0  0  0  0  0  0  0  0  0  0  0
   -3.8576   -2.9280    0.0000 C   0  0  0  0  0  0  0  0  0  0  0  0
    4.0136   -2.1153    0.0000 C   0  0  0  0  0  0  0  0  0  0  0  0
    4.9856    0.2941    0.0000 C   0  0  0  0  0  0  0  0  0  0  0  0
    5.1952   -1.1912    0.0000 C   0  0  0  0  0  0  0  0  0  0  0  0
   -0.7167   -0.9235    0.0000 H   0  0  0  0  0  0  0  0  0  0  0  0
   -0.7858    4.0079    0.0000 H   0  0  0  0  0  0  0  0  0  0  0  0
    0.7526    2.7184    0.0000 H   0  0  0  0  0  0  0  0  0  0  0  0
   -3.6712    3.0255    0.0000 H   0  0  0  0  0  0  0  0  0  0  0  0
   -1.9694    4.0901    0.0000 H   0  0  0  0  0  0  0  0  0  0  0  0
   -4.8548    0.8231    0.0000 H   0  0  0  0  0  0  0  0  0  0  0  0
    1.4410   -2.4782    0.0000 H   0  0  0  0  0  0  0  0  0  0  0  0
    3.3851    2.3406    0.0000 H   0  0  0  0  0  0  0  0  0  0  0  0
   -6.3854   -2.0590    0.0000 H   0  0  0  0  0  0  0  0  0  0  0  0
   -4.1173   -4.4053    0.0000 H   0  0  0  0  0  0  0  0  0  0  0  0
    4.2231   -3.6006    0.0000 H   0  0  0  0  0  0  0  0  0  0  0  0
    6.1672    1.2182    0.0000 H   0  0  0  0  0  0  0  0  0  0  0  0
  1 20  1  0
  2  5  2  0
  2  6  2  0
  2  7  1  0
  2 12  1  0
  3  8  1  0
  3 10  1  0
  4 11  1  0
  4 17  1  0
  7  8  1  0
  7  9  1  0
  8 11  1  0
  8 21  1  6
  9 10  1  0
  9 22  1  0
  9 23  1  0
 10 24  1  0
 10 25  1  0
 11 13  2  0
 12 14  2  0
 12 15  1  0
 13 16  1  0
 13 26  1  0
 14 18  1  0
 14 27  1  0
 15 19  2  0
 15 28  1  0
 16 17  2  0
 16 29  1  0
 17 30  1  0
 18 20  2  0
 18 31  1  0
 19 20  1  0
 19 32  1  0
M  STY  8   1 DAT   2 DAT   3 DAT   4 DAT   5 DAT   6 DAT   7 DAT   8 DAT
M  STY  8   9 DAT  10 DAT  11 DAT  12 DAT  13 DAT  14 DAT  15 DAT  16 DAT
M  STY  8  17 DAT  18 DAT  19 DAT  20 DAT  21 DAT  22 DAT  23 DAT  24 DAT
M  STY  8  25 DAT  26 DAT  27 DAT  28 DAT  29 DAT  30 DAT  31 DAT  32 DAT
M  SAL   1  1   1
M  SED   1 [#17&h0]
M  SAL   2  1   2
M  SED   2 [#16&h0]
M  SAL   3  1   3
M  SED   3 [#16&h0]
M  SAL   4  1   4
M  SED   4 [#8&h0]
M  SAL   5  1   5
M  SED   5 [#8&h0]
M  SAL   6  1   6
M  SED   6 [#8&h0]
M  SAL   7  1   7
M  SED   7 [#7&h0]
M  SAL   8  1   8
M  SED   8 [#6&h0]
M  SAL   9  1   9
M  SED   9 [#6&h0]
M  SAL  10  1  10
M  SED  10 [#6&h0]
M  SAL  11  1  11
M  SED  11 [#6&h0]
M  SAL  12  1  12
M  SED  12 [#6&h0]
M  SAL  13  1  13
M  SED  13 [#6&h0]
M  SAL  14  1  14
M  SED  14 [#6&h0]
M  SAL  15  1  15
M  SED  15 [#6&h0]
M  SAL  16  1  16
M  SED  16 [#6&h0]
M  SAL  17  1  17
M  SED  17 [#6&h0]
M  SAL  18  1  18
M  SED  18 [#6&h0]
M  SAL  19  1  19
M  SED  19 [#6&h0]
M  SAL  20  1  20
M  SED  20 [#6&h0]
M  SAL  21  1  21
M  SED  21 [#1&h0]
M  SAL  22  1  22
M  SED  22 [#1&h0]
M  SAL  23  1  23
M  SED  23 [#1&h0]
M  SAL  24  1  24
M  SED  24 [#1&h0]
M  SAL  25  1  25
M  SED  25 [#1&h0]
M  SAL  26  1  26
M  SED  26 [#1&h0]
M  SAL  27  1  27
M  SED  27 [#1&h0]
M  SAL  28  1  28
M  SED  28 [#1&h0]
M  SAL  29  1  29
M  SED  29 [#1&h0]
M  SAL  30  1  30
M  SED  30 [#1&h0]
M  SAL  31  1  31
M  SED  31 [#1&h0]
M  SAL  32  1  32
M  SED  32 [#1&h0]
M  END
>  <Activity>  (127) 
0.01

>  <Mapped(file=2032.csv.activities,property=Cached(PUBCHEM_COMPOUND_CID))>  (127) 
100

>  <MatchIndices>  (127) 
153 

>  <PUBCHEM_ATOM_DEF_STEREO_COUNT>  (127) 
0

>  <PUBCHEM_ATOM_UDEF_STEREO_COUNT>  (127) 
1

>  <PUBCHEM_BONDANNOTATIONS>  (127) 
11  13  8
12  14  8
12  15  8
13  16  8
14  18  8
15  19  8
16  17  8
18  20  8
19  20  8
4  11  8
4  17  8
8  11  3

>  <PUBCHEM_BOND_DEF_STEREO_COUNT>  (127) 
0

>  <PUBCHEM_BOND_UDEF_STEREO_COUNT>  (127) 
0

>  <PUBCHEM_CACTVS_COMPLEXITY>  (127) 
431

>  <PUBCHEM_CACTVS_HBOND_ACCEPTOR>  (127) 
5

>  <PUBCHEM_CACTVS_HBOND_DONOR>  (127) 
0

>  <PUBCHEM_CACTVS_ROTATABLE_BOND>  (127) 
3

>  <PUBCHEM_CACTVS_SUBSKEYS>  (127) 
AAADccByMABkAAAAAAAAAAAAAAAAAWJAAAAwAAAAAAAAAAABwAAAHgYAQAAACAbl0CawBYIABEqIAKhSgHDCCBBkJRAIiBmODsgOJjKltzuHOSjkwBG4qYeYEQIAAAIAAAAAAAAABAAAAAAAAAAAAAAAAA==

>  <PUBCHEM_CACTVS_TAUTO_COUNT>  (127) 
1

>  <PUBCHEM_CACTVS_TPSA>  (127) 
84.2

>  <PUBCHEM_COMPONENT_COUNT>  (127) 
1

>  <PUBCHEM_COMPOUND_CANONICALIZED>  (127) 
1

>  <PUBCHEM_COMPOUND_CID>  (127) 
2998207

>  <PUBCHEM_COORDINATE_TYPE>  (127) 
1
5
255

>  <PUBCHEM_EXACT_MASS>  (127) 
328.994713

>  <PUBCHEM_HEAVY_ATOM_COUNT>  (127) 
20

>  <PUBCHEM_ISOTOPIC_ATOM_COUNT>  (127) 
0

>  <PUBCHEM_IUPAC_CAS_NAME>  (127) 
3-(4-chlorophenyl)sulfonyl-2-(2-furanyl)thiazolidine

>  <PUBCHEM_IUPAC_INCHI>  (127) 
InChI=1S/C13H12ClNO3S2/c14-10-3-5-11(6-4-10)20(16,17)15-7-9-19-13(15)12-2-1-8-18-12/h1-6,8,13H,7,9H2

>  <PUBCHEM_IUPAC_INCHIKEY>  (127) 
GYBNNSZJCAPPOA-UHFFFAOYSA-N

>  <PUBCHEM_IUPAC_NAME>  (127) 
3-(4-chlorophenyl)sulfonyl-2-(furan-2-yl)-1,3-thiazolidine

>  <PUBCHEM_IUPAC_OPENEYE_NAME>  (127) 
3-(4-chlorophenyl)sulfonyl-2-(2-furyl)thiazolidine

>  <PUBCHEM_IUPAC_SYSTEMATIC_NAME>  (127) 
3-(4-chlorophenyl)sulfonyl-2-(furan-2-yl)-1,3-thiazolidine

>  <PUBCHEM_IUPAC_TRADITIONAL_NAME>  (127) 
3-(4-chlorophenyl)sulfonyl-2-(2-furyl)thiazolidine

>  <PUBCHEM_MOLECULAR_FORMULA>  (127) 
C13H12ClNO3S2

>  <PUBCHEM_MOLECULAR_WEIGHT>  (127) 
329.82228

>  <PUBCHEM_MONOISOTOPIC_WEIGHT>  (127) 
328.994713

>  <PUBCHEM_OPENEYE_CAN_SMILES>  (127) 
C1CSC(N1S(=O)(=O)C2=CC=C(C=C2)Cl)C3=CC=CO3

>  <PUBCHEM_OPENEYE_ISO_SMILES>  (127) 
C1CSC(N1S(=O)(=O)C2=CC=C(C=C2)Cl)C3=CC=CO3

>  <PUBCHEM_TOTAL_CHARGE>  (127) 
0

>  <PUBCHEM_XLOGP3_AA>  (127) 
2.8

$$$$
Largest isolated from Written by BCL::WriteToMDL,1442565
     RDKit          2D

 42 44  0 42  0  0  0  0  0  0999 V2000
    1.7394    2.8078    0.0000 S   0  0  0  0  0  0  0  0  0  0  0  0
   -2.2291    2.7764    0.0000 O   0  0  0  0  0  0  0  0  0  0  0  0
   -1.3981    5.2380    0.0000 O   0  0  0  0  0  0  0  0  0  0  0  0
    2.6248   -1.6042    0.0000 N   0  0  0  0  0  0  0  0  0  0  0  0
    0.9085    0.3462    0.0000 N   0  0  0  0  0  0  0  0  0  0  0  0
    0.0775   -2.1154    0.0000 C   0  0  0  0  0  0  0  0  0  0  0  0
    3.4557    0.8574    0.0000 C   0  0  0  0  0  0  0  0  0  0  0  0
    1.2036   -1.1245    0.0000 C   0  0  0  0  0  0  0  0  0  0  0  0
    3.7509   -0.6133    0.0000 C   0  0  0  0  0  0  0  0  0  0  0  0
   -1.0486   -3.1063    0.0000 C   0  0  0  0  0  0  0  0  0  0  0  0
    2.0345    1.3371    0.0000 C   0  0  0  0  0  0  0  0  0  0  0  0
    4.5818    1.8483    0.0000 C   0  0  0  0  0  0  0  0  0  0  0  0
    5.1721   -1.0931    0.0000 C   0  0  0  0  0  0  0  0  0  0  0  0
   -2.4698   -2.6265    0.0000 C   0  0  0  0  0  0  0  0  0  0  0  0
   -0.7535   -4.5770    0.0000 C   0  0  0  0  0  0  0  0  0  0  0  0
    6.0030    1.3685    0.0000 C   0  0  0  0  0  0  0  0  0  0  0  0
    6.2982   -0.1021    0.0000 C   0  0  0  0  0  0  0  0  0  0  0  0
   -3.5959   -3.6175    0.0000 C   0  0  0  0  0  0  0  0  0  0  0  0
   -1.8796   -5.5679    0.0000 C   0  0  0  0  0  0  0  0  0  0  0  0
    0.3182    3.2876    0.0000 C   0  0  0  0  0  0  0  0  0  0  0  0
   -3.3008   -5.0882    0.0000 C   0  0  0  0  0  0  0  0  0  0  0  0
   -1.1030    3.7673    0.0000 C   0  0  0  0  0  0  0  0  0  0  0  0
   -3.6503    3.2562    0.0000 C   0  0  0  0  0  0  0  0  0  0  0  0
   -5.0715    3.7359    0.0000 C   0  0  0  0  0  0  0  0  0  0  0  0
   -0.9134   -0.9893    0.0000 H   0  0  0  0  0  0  0  0  0  0  0  0
    1.0684   -3.2415    0.0000 H   0  0  0  0  0  0  0  0  0  0  0  0
    4.2867    3.3190    0.0000 H   0  0  0  0  0  0  0  0  0  0  0  0
    5.4672   -2.5637    0.0000 H   0  0  0  0  0  0  0  0  0  0  0  0
   -2.7649   -1.1559    0.0000 H   0  0  0  0  0  0  0  0  0  0  0  0
    0.6677   -5.0568    0.0000 H   0  0  0  0  0  0  0  0  0  0  0  0
    7.1291    2.3595    0.0000 H   0  0  0  0  0  0  0  0  0  0  0  0
    7.7194   -0.5819    0.0000 H   0  0  0  0  0  0  0  0  0  0  0  0
    0.7980    4.7088    0.0000 H   0  0  0  0  0  0  0  0  0  0  0  0
   -0.1615    1.8664    0.0000 H   0  0  0  0  0  0  0  0  0  0  0  0
   -5.0171   -3.1377    0.0000 H   0  0  0  0  0  0  0  0  0  0  0  0
   -1.5845   -7.0386    0.0000 H   0  0  0  0  0  0  0  0  0  0  0  0
   -4.4269   -6.0791    0.0000 H   0  0  0  0  0  0  0  0  0  0  0  0
   -4.1300    1.8350    0.0000 H   0  0  0  0  0  0  0  0  0  0  0  0
   -3.1705    4.6774    0.0000 H   0  0  0  0  0  0  0  0  0  0  0  0
   -4.5917    5.1571    0.0000 H   0  0  0  0  0  0  0  0  0  0  0  0
   -5.5513    2.3147    0.0000 H   0  0  0  0  0  0  0  0  0  0  0  0
   -6.4927    4.2157    0.0000 H   0  0  0  0  0  0  0  0  0  0  0  0
  1 11  1  0
  1 20  1  0
  2 22  1  0
  2 23  1  0
  3 22  2  0
  4  8  2  0
  4  9  1  0
  5  8  1  0
  5 11  2  0
  6  8  1  0
  6 10  1  0
  6 25  1  0
  6 26  1  0
  7  9  2  0
  7 11  1  0
  7 12  1  0
  9 13  1  0
 10 14  2  0
 10 15  1  0
 12 16  2  0
 12 27  1  0
 13 17  2  0
 13 28  1  0
 14 18  1  0
 14 29  1  0
 15 19  2  0
 15 30  1  0
 16 17  1  0
 16 31  1  0
 17 32  1  0
 18 21  2  0
 18 35  1  0
 19 21  1  0
 19 36  1  0
 20 22  1  0
 20 33  1  0
 20 34  1  0
 21 37  1  0
 23 24  1  0
 23 38  1  0
 23 39  1  0
 24 40  1  0
 24 41  1  0
 24 42  1  0
M  STY  8   1 DAT   2 DAT   3 DAT   4 DAT   5 DAT   6 DAT   7 DAT   8 DAT
M  STY  8   9 DAT  10 DAT  11 DAT  12 DAT  13 DAT  14 DAT  15 DAT  16 DAT
M  STY  8  17 DAT  18 DAT  19 DAT  20 DAT  21 DAT  22 DAT  23 DAT  24 DAT
M  STY  8  25 DAT  26 DAT  27 DAT  28 DAT  29 DAT  30 DAT  31 DAT  32 DAT
M  STY  8  33 DAT  34 DAT  35 DAT  36 DAT  37 DAT  38 DAT  39 DAT  40 DAT
M  STY  2  41 DAT  42 DAT
M  SAL   1  1   1
M  SED   1 [#16&h0]
M  SAL   2  1   2
M  SED   2 [#8&h0]
M  SAL   3  1   3
M  SED   3 [#8&h0]
M  SAL   4  1   4
M  SED   4 [#7&h0]
M  SAL   5  1   5
M  SED   5 [#7&h0]
M  SAL   6  1   6
M  SED   6 [#6&h0]
M  SAL   7  1   7
M  SED   7 [#6&h0]
M  SAL   8  1   8
M  SED   8 [#6&h0]
M  SAL   9  1   9
M  SED   9 [#6&h0]
M  SAL  10  1  10
M  SED  10 [#6&h0]
M  SAL  11  1  11
M  SED  11 [#6&h0]
M  SAL  12  1  12
M  SED  12 [#6&h0]
M  SAL  13  1  13
M  SED  13 [#6&h0]
M  SAL  14  1  14
M  SED  14 [#6&h0]
M  SAL  15  1  15
M  SED  15 [#6&h0]
M  SAL  16  1  16
M  SED  16 [#6&h0]
M  SAL  17  1  17
M  SED  17 [#6&h0]
M  SAL  18  1  18
M  SED  18 [#6&h0]
M  SAL  19  1  19
M  SED  19 [#6&h0]
M  SAL  20  1  20
M  SED  20 [#6&h0]
M  SAL  21  1  21
M  SED  21 [#6&h0]
M  SAL  22  1  22
M  SED  22 [#6&h0]
M  SAL  23  1  23
M  SED  23 [#6&h0]
M  SAL  24  1  24
M  SED  24 [#6&h0]
M  SAL  25  1  25
M  SED  25 [#1&h0]
M  SAL  26  1  26
M  SED  26 [#1&h0]
M  SAL  27  1  27
M  SED  27 [#1&h0]
M  SAL  28  1  28
M  SED  28 [#1&h0]
M  SAL  29  1  29
M  SED  29 [#1&h0]
M  SAL  30  1  30
M  SED  30 [#1&h0]
M  SAL  31  1  31
M  SED  31 [#1&h0]
M  SAL  32  1  32
M  SED  32 [#1&h0]
M  SAL  33  1  33
M  SED  33 [#1&h0]
M  SAL  34  1  34
M  SED  34 [#1&h0]
M  SAL  35  1  35
M  SED  35 [#1&h0]
M  SAL  36  1  36
M  SED  36 [#1&h0]
M  SAL  37  1  37
M  SED  37 [#1&h0]
M  SAL  38  1  38
M  SED  38 [#1&h0]
M  SAL  39  1  39
M  SED  39 [#1&h0]
M  SAL  40  1  40
M  SED  40 [#1&h0]
M  SAL  41  1  41
M  SED  41 [#1&h0]
M  SAL  42  1  42
M  SED  42 [#1&h0]
M  END
>  <Activity>  (128) 
0.01

>  <Mapped(file=2032.csv.activities,property=Cached(PUBCHEM_COMPOUND_CID))>  (128) 
100

>  <MatchIndices>  (128) 
112 

>  <PUBCHEM_ATOM_DEF_STEREO_COUNT>  (128) 
0

>  <PUBCHEM_ATOM_UDEF_STEREO_COUNT>  (128) 
0

>  <PUBCHEM_BONDANNOTATIONS>  (128) 
10  14  8
10  15  8
12  16  8
13  17  8
14  18  8
15  19  8
16  17  8
18  21  8
19  21  8
4  8  8
4  9  8
5  11  8
5  8  8
7  11  8
7  12  8
7  9  8
9  13  8

>  <PUBCHEM_BOND_DEF_STEREO_COUNT>  (128) 
0

>  <PUBCHEM_BOND_UDEF_STEREO_COUNT>  (128) 
0

>  <PUBCHEM_CACTVS_COMPLEXITY>  (128) 
401

>  <PUBCHEM_CACTVS_HBOND_ACCEPTOR>  (128) 
3

>  <PUBCHEM_CACTVS_HBOND_DONOR>  (128) 
0

>  <PUBCHEM_CACTVS_ROTATABLE_BOND>  (128) 
7

>  <PUBCHEM_CACTVS_SUBSKEYS>  (128) 
AAADceB7MABAAAAAAAAAAAAAAAAAAAAAAAA8YIAAAAAAAACx9AAAHgQAAAAADAil3wKz2fYIFAioAybybACC0ClhCrAJmDAwZJiIKKLg2dGGJAxogALoyCcQgIAOAAAAAAACAAAAAAAAAAQAAAAAAAAAAA==

>  <PUBCHEM_CACTVS_TAUTO_COUNT>  (128) 
1

>  <PUBCHEM_CACTVS_TPSA>  (128) 
77.4

>  <PUBCHEM_COMPONENT_COUNT>  (128) 
1

>  <PUBCHEM_COMPOUND_CANONICALIZED>  (128) 
1

>  <PUBCHEM_COMPOUND_CID>  (128) 
1442565

>  <PUBCHEM_COORDINATE_TYPE>  (128) 
1
5
255

>  <PUBCHEM_EXACT_MASS>  (128) 
338.108899

>  <PUBCHEM_HEAVY_ATOM_COUNT>  (128) 
24

>  <PUBCHEM_ISOTOPIC_ATOM_COUNT>  (128) 
0

>  <PUBCHEM_IUPAC_CAS_NAME>  (128) 
2-[[2-(phenylmethyl)-4-quinazolinyl]thio]acetic acid ethyl ester

>  <PUBCHEM_IUPAC_INCHI>  (128) 
InChI=1S/C19H18N2O2S/c1-2-23-18(22)13-24-19-15-10-6-7-11-16(15)20-17(21-19)12-14-8-4-3-5-9-14/h3-11H,2,12-13H2,1H3

>  <PUBCHEM_IUPAC_INCHIKEY>  (128) 
YRAOHSZYMMTKQT-UHFFFAOYSA-N

>  <PUBCHEM_IUPAC_NAME>  (128) 
ethyl 2-(2-benzylquinazolin-4-yl)sulfanylacetate

>  <PUBCHEM_IUPAC_OPENEYE_NAME>  (128) 
ethyl 2-(2-benzylquinazolin-4-yl)sulfanylacetate

>  <PUBCHEM_IUPAC_SYSTEMATIC_NAME>  (128) 
ethyl 2-[2-(phenylmethyl)quinazolin-4-yl]sulfanylethanoate

>  <PUBCHEM_IUPAC_TRADITIONAL_NAME>  (128) 
2-[(2-benzylquinazolin-4-yl)thio]acetic acid ethyl ester

>  <PUBCHEM_MOLECULAR_FORMULA>  (128) 
C19H18N2O2S

>  <PUBCHEM_MOLECULAR_WEIGHT>  (128) 
338.42342

>  <PUBCHEM_MONOISOTOPIC_WEIGHT>  (128) 
338.108899

>  <PUBCHEM_OPENEYE_CAN_SMILES>  (128) 
CCOC(=O)CSC1=NC(=NC2=CC=CC=C21)CC3=CC=CC=C3

>  <PUBCHEM_OPENEYE_ISO_SMILES>  (128) 
CCOC(=O)CSC1=NC(=NC2=CC=CC=C21)CC3=CC=CC=C3

>  <PUBCHEM_TOTAL_CHARGE>  (128) 
0

>  <PUBCHEM_XLOGP3_AA>  (128) 
4.6

$$$$
Largest isolated from Written by BCL::WriteToMDL,2415521
     RDKit          2D

 44 46  0 44  0  0  0  0  0  0999 V2000
   -1.3431    0.5497    0.0000 S   0  0  0  0  0  0  0  0  0  0  0  0
    1.5093   -2.2097    0.0000 O   0  0  0  0  0  0  0  0  0  0  0  0
    4.1136    4.1518    0.0000 O   0  0  0  0  0  0  0  0  0  0  0  0
   -7.7555   -2.1042    0.0000 O   0  0  0  0  0  0  0  0  0  0  0  0
   -3.5013    2.1268    0.0000 N   0  0  0  0  0  0  0  0  0  0  0  0
   -3.7319    3.6090    0.0000 N   0  0  0  0  0  0  0  0  0  0  0  0
   -1.3357    3.2227    0.0000 N   0  0  0  0  0  0  0  0  0  0  0  0
   -2.3935    4.2863    0.0000 N   0  0  0  0  0  0  0  0  0  0  0  0
    1.6524    0.3845    0.0000 C   0  0  0  0  0  0  0  0  0  0  0  0
    2.3297   -0.9539    0.0000 C   0  0  0  0  0  0  0  0  0  0  0  0
    0.1546    0.4671    0.0000 C   0  0  0  0  0  0  0  0  0  0  0  0
    2.4728    1.6402    0.0000 C   0  0  0  0  0  0  0  0  0  0  0  0
    3.9705    1.5576    0.0000 C   0  0  0  0  0  0  0  0  0  0  0  0
    3.8274   -1.0365    0.0000 C   0  0  0  0  0  0  0  0  0  0  0  0
    4.6478    0.2192    0.0000 C   0  0  0  0  0  0  0  0  0  0  0  0
   -2.0204    1.8881    0.0000 C   0  0  0  0  0  0  0  0  0  0  0  0
   -4.5648    1.0690    0.0000 C   0  0  0  0  0  0  0  0  0  0  0  0
    4.7909    2.8134    0.0000 C   0  0  0  0  0  0  0  0  0  0  0  0
    2.1866   -3.5480    0.0000 C   0  0  0  0  0  0  0  0  0  0  0  0
   -6.0127    1.4612    0.0000 C   0  0  0  0  0  0  0  0  0  0  0  0
   -4.1806   -0.3809    0.0000 C   0  0  0  0  0  0  0  0  0  0  0  0
    6.2886    2.7308    0.0000 C   0  0  0  0  0  0  0  0  0  0  0  0
   -7.0762    0.4035    0.0000 C   0  0  0  0  0  0  0  0  0  0  0  0
   -5.2442   -1.4386    0.0000 C   0  0  0  0  0  0  0  0  0  0  0  0
    2.8639   -4.8864    0.0000 C   0  0  0  0  0  0  0  0  0  0  0  0
   -6.6920   -1.0464    0.0000 C   0  0  0  0  0  0  0  0  0  0  0  0
    0.2373    1.9648    0.0000 H   0  0  0  0  0  0  0  0  0  0  0  0
    0.0720   -1.0306    0.0000 H   0  0  0  0  0  0  0  0  0  0  0  0
    1.7955    2.9786    0.0000 H   0  0  0  0  0  0  0  0  0  0  0  0
    4.5047   -2.3749    0.0000 H   0  0  0  0  0  0  0  0  0  0  0  0
    6.1455    0.1366    0.0000 H   0  0  0  0  0  0  0  0  0  0  0  0
    3.5250   -2.8707    0.0000 H   0  0  0  0  0  0  0  0  0  0  0  0
    0.8482   -4.2253    0.0000 H   0  0  0  0  0  0  0  0  0  0  0  0
   -6.3969    2.9112    0.0000 H   0  0  0  0  0  0  0  0  0  0  0  0
   -2.7328   -0.7731    0.0000 H   0  0  0  0  0  0  0  0  0  0  0  0
    6.3712    4.2285    0.0000 H   0  0  0  0  0  0  0  0  0  0  0  0
    6.2060    1.2330    0.0000 H   0  0  0  0  0  0  0  0  0  0  0  0
    7.7864    2.6482    0.0000 H   0  0  0  0  0  0  0  0  0  0  0  0
   -8.5240    0.7957    0.0000 H   0  0  0  0  0  0  0  0  0  0  0  0
   -4.8599   -2.8886    0.0000 H   0  0  0  0  0  0  0  0  0  0  0  0
    4.2023   -4.2091    0.0000 H   0  0  0  0  0  0  0  0  0  0  0  0
    1.5255   -5.5637    0.0000 H   0  0  0  0  0  0  0  0  0  0  0  0
    3.5412   -6.2248    0.0000 H   0  0  0  0  0  0  0  0  0  0  0  0
   -9.2034   -1.7120    0.0000 H   0  0  0  0  0  0  0  0  0  0  0  0
  1 11  1  0
  1 16  1  0
  2 10  1  0
  2 19  1  0
  3 18  2  0
  4 26  1  0
  4 44  1  0
  5  6  1  0
  5 16  1  0
  5 17  1  0
  6  8  2  0
  7  8  1  0
  7 16  2  0
  9 10  2  0
  9 11  1  0
  9 12  1  0
 10 14  1  0
 11 27  1  0
 11 28  1  0
 12 13  2  0
 12 29  1  0
 13 15  1  0
 13 18  1  0
 14 15  2  0
 14 30  1  0
 15 31  1  0
 17 20  2  0
 17 21  1  0
 18 22  1  0
 19 25  1  0
 19 32  1  0
 19 33  1  0
 20 23  1  0
 20 34  1  0
 21 24  2  0
 21 35  1  0
 22 36  1  0
 22 37  1  0
 22 38  1  0
 23 26  2  0
 23 39  1  0
 24 26  1  0
 24 40  1  0
 25 41  1  0
 25 42  1  0
 25 43  1  0
M  STY  8   1 DAT   2 DAT   3 DAT   4 DAT   5 DAT   6 DAT   7 DAT   8 DAT
M  STY  8   9 DAT  10 DAT  11 DAT  12 DAT  13 DAT  14 DAT  15 DAT  16 DAT
M  STY  8  17 DAT  18 DAT  19 DAT  20 DAT  21 DAT  22 DAT  23 DAT  24 DAT
M  STY  8  25 DAT  26 DAT  27 DAT  28 DAT  29 DAT  30 DAT  31 DAT  32 DAT
M  STY  8  33 DAT  34 DAT  35 DAT  36 DAT  37 DAT  38 DAT  39 DAT  40 DAT
M  STY  4  41 DAT  42 DAT  43 DAT  44 DAT
M  SAL   1  1   1
M  SED   1 [#16&h0]
M  SAL   2  1   2
M  SED   2 [#8&h0]
M  SAL   3  1   3
M  SED   3 [#8&h0]
M  SAL   4  1   4
M  SED   4 [#8&h0]
M  SAL   5  1   5
M  SED   5 [#7&h0]
M  SAL   6  1   6
M  SED   6 [#7&h0]
M  SAL   7  1   7
M  SED   7 [#7&h0]
M  SAL   8  1   8
M  SED   8 [#7&h0]
M  SAL   9  1   9
M  SED   9 [#6&h0]
M  SAL  10  1  10
M  SED  10 [#6&h0]
M  SAL  11  1  11
M  SED  11 [#6&h0]
M  SAL  12  1  12
M  SED  12 [#6&h0]
M  SAL  13  1  13
M  SED  13 [#6&h0]
M  SAL  14  1  14
M  SED  14 [#6&h0]
M  SAL  15  1  15
M  SED  15 [#6&h0]
M  SAL  16  1  16
M  SED  16 [#6&h0]
M  SAL  17  1  17
M  SED  17 [#6&h0]
M  SAL  18  1  18
M  SED  18 [#6&h0]
M  SAL  19  1  19
M  SED  19 [#6&h0]
M  SAL  20  1  20
M  SED  20 [#6&h0]
M  SAL  21  1  21
M  SED  21 [#6&h0]
M  SAL  22  1  22
M  SED  22 [#6&h0]
M  SAL  23  1  23
M  SED  23 [#6&h0]
M  SAL  24  1  24
M  SED  24 [#6&h0]
M  SAL  25  1  25
M  SED  25 [#6&h0]
M  SAL  26  1  26
M  SED  26 [#6&h0]
M  SAL  27  1  27
M  SED  27 [#1&h0]
M  SAL  28  1  28
M  SED  28 [#1&h0]
M  SAL  29  1  29
M  SED  29 [#1&h0]
M  SAL  30  1  30
M  SED  30 [#1&h0]
M  SAL  31  1  31
M  SED  31 [#1&h0]
M  SAL  32  1  32
M  SED  32 [#1&h0]
M  SAL  33  1  33
M  SED  33 [#1&h0]
M  SAL  34  1  34
M  SED  34 [#1&h0]
M  SAL  35  1  35
M  SED  35 [#1&h0]
M  SAL  36  1  36
M  SED  36 [#1&h0]
M  SAL  37  1  37
M  SED  37 [#1&h0]
M  SAL  38  1  38
M  SED  38 [#1&h0]
M  SAL  39  1  39
M  SED  39 [#1&h0]
M  SAL  40  1  40
M  SED  40 [#1&h0]
M  SAL  41  1  41
M  SED  41 [#1&h0]
M  SAL  42  1  42
M  SED  42 [#1&h0]
M  SAL  43  1  43
M  SED  43 [#1&h0]
M  SAL  44  1  44
M  SED  44 [#1&h0]
M  END
>  <Activity>  (129) 
0.01

>  <Mapped(file=2032.csv.activities,property=Cached(PUBCHEM_COMPOUND_CID))>  (129) 
100

>  <MatchIndices>  (129) 
137 

>  <PUBCHEM_ATOM_DEF_STEREO_COUNT>  (129) 
0

>  <PUBCHEM_ATOM_UDEF_STEREO_COUNT>  (129) 
0

>  <PUBCHEM_BONDANNOTATIONS>  (129) 
10  14  8
12  13  8
13  15  8
14  15  8
17  20  8
17  21  8
20  23  8
21  24  8
23  26  8
24  26  8
5  16  8
5  6  8
6  8  8
7  16  8
7  8  8
9  10  8
9  12  8

>  <PUBCHEM_BOND_DEF_STEREO_COUNT>  (129) 
0

>  <PUBCHEM_BOND_UDEF_STEREO_COUNT>  (129) 
0

>  <PUBCHEM_CACTVS_COMPLEXITY>  (129) 
462

>  <PUBCHEM_CACTVS_HBOND_ACCEPTOR>  (129) 
6

>  <PUBCHEM_CACTVS_HBOND_DONOR>  (129) 
1

>  <PUBCHEM_CACTVS_ROTATABLE_BOND>  (129) 
7

>  <PUBCHEM_CACTVS_SUBSKEYS>  (129) 
AAADceB7sABAAAAAAAAAAAAAAAAAAWAAAAAwYAAAAAAAAAAB0AAAHgQICAAADAyl2AKz1oYIBgiqAqRSZACCHCNlIpAdiAEGbMiMJjLmvZuGeSjkwBNI+ae4zODOIEACAAAIAABAgAQAABAAAAAAAAAAAA==

>  <PUBCHEM_CACTVS_TAUTO_COUNT>  (129) 
4

>  <PUBCHEM_CACTVS_TPSA>  (129) 
115

>  <PUBCHEM_COMPONENT_COUNT>  (129) 
1

>  <PUBCHEM_COMPOUND_CANONICALIZED>  (129) 
1

>  <PUBCHEM_COMPOUND_CID>  (129) 
2415521

>  <PUBCHEM_COORDINATE_TYPE>  (129) 
1
5
255

>  <PUBCHEM_EXACT_MASS>  (129) 
370.109961

>  <PUBCHEM_HEAVY_ATOM_COUNT>  (129) 
26

>  <PUBCHEM_ISOTOPIC_ATOM_COUNT>  (129) 
0

>  <PUBCHEM_IUPAC_CAS_NAME>  (129) 
1-[4-ethoxy-3-[[[1-(4-hydroxyphenyl)-5-tetrazolyl]thio]methyl]phenyl]ethanone

>  <PUBCHEM_IUPAC_INCHI>  (129) 
InChI=1S/C18H18N4O3S/c1-3-25-17-9-4-13(12(2)23)10-14(17)11-26-18-19-20-21-22(18)15-5-7-16(24)8-6-15/h4-10,24H,3,11H2,1-2H3

>  <PUBCHEM_IUPAC_INCHIKEY>  (129) 
KXJFTDWIORYGMP-UHFFFAOYSA-N

>  <PUBCHEM_IUPAC_NAME>  (129) 
1-[4-ethoxy-3-[[1-(4-hydroxyphenyl)tetrazol-5-yl]sulfanylmethyl]phenyl]ethanone

>  <PUBCHEM_IUPAC_OPENEYE_NAME>  (129) 
1-[4-ethoxy-3-[[1-(4-hydroxyphenyl)tetrazol-5-yl]sulfanylmethyl]phenyl]ethanone

>  <PUBCHEM_IUPAC_SYSTEMATIC_NAME>  (129) 
1-[4-ethoxy-3-[[1-(4-hydroxyphenyl)-1,2,3,4-tetrazol-5-yl]sulfanylmethyl]phenyl]ethanone

>  <PUBCHEM_IUPAC_TRADITIONAL_NAME>  (129) 
1-[4-ethoxy-3-[[[1-(4-hydroxyphenyl)tetrazol-5-yl]thio]methyl]phenyl]ethanone

>  <PUBCHEM_MOLECULAR_FORMULA>  (129) 
C18H18N4O3S

>  <PUBCHEM_MOLECULAR_WEIGHT>  (129) 
370.42552

>  <PUBCHEM_MONOISOTOPIC_WEIGHT>  (129) 
370.109961

>  <PUBCHEM_OPENEYE_CAN_SMILES>  (129) 
CCOC1=C(C=C(C=C1)C(=O)C)CSC2=NN=NN2C3=CC=C(C=C3)O

>  <PUBCHEM_OPENEYE_ISO_SMILES>  (129) 
CCOC1=C(C=C(C=C1)C(=O)C)CSC2=NN=NN2C3=CC=C(C=C3)O

>  <PUBCHEM_TOTAL_CHARGE>  (129) 
0

>  <PUBCHEM_XLOGP3_AA>  (129) 
3.2

$$$$
Largest isolated from Written by BCL::WriteToMDL,1988912
     RDKit          2D

 44 45  0 44  0  0  0  0  0  0999 V2000
    8.6429   -1.4607    0.0000 Cl  0  0  0  0  0  0  0  0  0  0  0  0
    8.7295    3.7347    0.0000 Cl  0  0  0  0  0  0  0  0  0  0  0  0
    4.8718   -2.6971    0.0000 S   0  0  0  0  0  0  0  0  0  0  0  0
   -5.0984    1.1363    0.0000 O   0  0  0  0  0  0  0  0  0  0  0  0
    2.5107   -1.4440    0.0000 O   0  0  0  0  0  0  0  0  0  0  0  0
   -4.0070   -0.6447    0.0000 O   0  0  0  0  0  0  0  0  0  0  0  0
   -2.5194    0.8217    0.0000 N   0  0  0  0  0  0  0  0  0  0  0  0
    1.0515   -3.3835    0.0000 N   0  0  0  0  0  0  0  0  0  0  0  0
    2.4702   -3.8707    0.0000 N   0  0  0  0  0  0  0  0  0  0  0  0
   -6.4787    0.5491    0.0000 C   0  0  0  0  0  0  0  0  0  0  0  0
   -7.0658    1.9294    0.0000 C   0  0  0  0  0  0  0  0  0  0  0  0
   -5.8915   -0.8312    0.0000 C   0  0  0  0  0  0  0  0  0  0  0  0
   -7.8590   -0.0381    0.0000 C   0  0  0  0  0  0  0  0  0  0  0  0
   -1.3208   -0.0801    0.0000 C   0  0  0  0  0  0  0  0  0  0  0  0
   -0.1221   -0.9819    0.0000 C   0  0  0  0  0  0  0  0  0  0  0  0
   -3.8997    0.2345    0.0000 C   0  0  0  0  0  0  0  0  0  0  0  0
    1.0766   -1.8837    0.0000 C   0  0  0  0  0  0  0  0  0  0  0  0
    6.4149   -0.1244    0.0000 C   0  0  0  0  0  0  0  0  0  0  0  0
    5.6433   -1.4107    0.0000 C   0  0  0  0  0  0  0  0  0  0  0  0
    3.3720   -2.6721    0.0000 C   0  0  0  0  0  0  0  0  0  0  0  0
    7.9147   -0.1494    0.0000 C   0  0  0  0  0  0  0  0  0  0  0  0
    5.6867    1.1870    0.0000 C   0  0  0  0  0  0  0  0  0  0  0  0
    8.6862    1.1370    0.0000 C   0  0  0  0  0  0  0  0  0  0  0  0
    6.4582    2.4734    0.0000 C   0  0  0  0  0  0  0  0  0  0  0  0
    7.9580    2.4483    0.0000 C   0  0  0  0  0  0  0  0  0  0  0  0
   -7.6142   -0.8893    0.0000 H   0  0  0  0  0  0  0  0  0  0  0  0
   -8.3025    0.7287    0.0000 H   0  0  0  0  0  0  0  0  0  0  0  0
   -9.2393   -0.6252    0.0000 H   0  0  0  0  0  0  0  0  0  0  0  0
   -6.6582   -1.2747    0.0000 H   0  0  0  0  0  0  0  0  0  0  0  0
   -5.0168   -0.6920    0.0000 H   0  0  0  0  0  0  0  0  0  0  0  0
   -5.3043   -2.2115    0.0000 H   0  0  0  0  0  0  0  0  0  0  0  0
   -7.9171    1.6846    0.0000 H   0  0  0  0  0  0  0  0  0  0  0  0
   -5.6856    2.5166    0.0000 H   0  0  0  0  0  0  0  0  0  0  0  0
   -7.6530    3.3097    0.0000 H   0  0  0  0  0  0  0  0  0  0  0  0
   -0.4190    1.1185    0.0000 H   0  0  0  0  0  0  0  0  0  0  0  0
   -2.2225   -1.2788    0.0000 H   0  0  0  0  0  0  0  0  0  0  0  0
    0.7797    0.2168    0.0000 H   0  0  0  0  0  0  0  0  0  0  0  0
   -1.0239   -2.1806    0.0000 H   0  0  0  0  0  0  0  0  0  0  0  0
   -2.3378    2.3106    0.0000 H   0  0  0  0  0  0  0  0  0  0  0  0
    4.3570   -0.6392    0.0000 H   0  0  0  0  0  0  0  0  0  0  0  0
    6.9297   -2.1823    0.0000 H   0  0  0  0  0  0  0  0  0  0  0  0
    4.1869    1.2120    0.0000 H   0  0  0  0  0  0  0  0  0  0  0  0
   10.1860    1.1120    0.0000 H   0  0  0  0  0  0  0  0  0  0  0  0
    5.7300    3.7847    0.0000 H   0  0  0  0  0  0  0  0  0  0  0  0
  1 21  1  0
  2 25  1  0
  3 19  1  0
  3 20  1  0
  4 10  1  0
  4 16  1  0
  5 17  1  0
  5 20  1  0
  6 16  2  0
  7 14  1  0
  7 16  1  0
  7 39  1  0
  8  9  1  0
  8 17  2  0
  9 20  2  0
 10 11  1  0
 10 12  1  0
 10 13  1  0
 11 32  1  0
 11 33  1  0
 11 34  1  0
 12 29  1  0
 12 30  1  0
 12 31  1  0
 13 26  1  0
 13 27  1  0
 13 28  1  0
 14 15  1  0
 14 35  1  0
 14 36  1  0
 15 17  1  0
 15 37  1  0
 15 38  1  0
 18 19  1  0
 18 21  2  0
 18 22  1  0
 19 40  1  0
 19 41  1  0
 21 23  1  0
 22 24  2  0
 22 42  1  0
 23 25  2  0
 23 43  1  0
 24 25  1  0
 24 44  1  0
M  STY  8   1 DAT   2 DAT   3 DAT   4 DAT   5 DAT   6 DAT   7 DAT   8 DAT
M  STY  8   9 DAT  10 DAT  11 DAT  12 DAT  13 DAT  14 DAT  15 DAT  16 DAT
M  STY  8  17 DAT  18 DAT  19 DAT  20 DAT  21 DAT  22 DAT  23 DAT  24 DAT
M  STY  8  25 DAT  26 DAT  27 DAT  28 DAT  29 DAT  30 DAT  31 DAT  32 DAT
M  STY  8  33 DAT  34 DAT  35 DAT  36 DAT  37 DAT  38 DAT  39 DAT  40 DAT
M  STY  4  41 DAT  42 DAT  43 DAT  44 DAT
M  SAL   1  1   1
M  SED   1 [#17&h0]
M  SAL   2  1   2
M  SED   2 [#17&h0]
M  SAL   3  1   3
M  SED   3 [#16&h0]
M  SAL   4  1   4
M  SED   4 [#8&h0]
M  SAL   5  1   5
M  SED   5 [#8&h0]
M  SAL   6  1   6
M  SED   6 [#8&h0]
M  SAL   7  1   7
M  SED   7 [#7&h0]
M  SAL   8  1   8
M  SED   8 [#7&h0]
M  SAL   9  1   9
M  SED   9 [#7&h0]
M  SAL  10  1  10
M  SED  10 [#6&h0]
M  SAL  11  1  11
M  SED  11 [#6&h0]
M  SAL  12  1  12
M  SED  12 [#6&h0]
M  SAL  13  1  13
M  SED  13 [#6&h0]
M  SAL  14  1  14
M  SED  14 [#6&h0]
M  SAL  15  1  15
M  SED  15 [#6&h0]
M  SAL  16  1  16
M  SED  16 [#6&h0]
M  SAL  17  1  17
M  SED  17 [#6&h0]
M  SAL  18  1  18
M  SED  18 [#6&h0]
M  SAL  19  1  19
M  SED  19 [#6&h0]
M  SAL  20  1  20
M  SED  20 [#6&h0]
M  SAL  21  1  21
M  SED  21 [#6&h0]
M  SAL  22  1  22
M  SED  22 [#6&h0]
M  SAL  23  1  23
M  SED  23 [#6&h0]
M  SAL  24  1  24
M  SED  24 [#6&h0]
M  SAL  25  1  25
M  SED  25 [#6&h0]
M  SAL  26  1  26
M  SED  26 [#1&h0]
M  SAL  27  1  27
M  SED  27 [#1&h0]
M  SAL  28  1  28
M  SED  28 [#1&h0]
M  SAL  29  1  29
M  SED  29 [#1&h0]
M  SAL  30  1  30
M  SED  30 [#1&h0]
M  SAL  31  1  31
M  SED  31 [#1&h0]
M  SAL  32  1  32
M  SED  32 [#1&h0]
M  SAL  33  1  33
M  SED  33 [#1&h0]
M  SAL  34  1  34
M  SED  34 [#1&h0]
M  SAL  35  1  35
M  SED  35 [#1&h0]
M  SAL  36  1  36
M  SED  36 [#1&h0]
M  SAL  37  1  37
M  SED  37 [#1&h0]
M  SAL  38  1  38
M  SED  38 [#1&h0]
M  SAL  39  1  39
M  SED  39 [#1&h0]
M  SAL  40  1  40
M  SED  40 [#1&h0]
M  SAL  41  1  41
M  SED  41 [#1&h0]
M  SAL  42  1  42
M  SED  42 [#1&h0]
M  SAL  43  1  43
M  SED  43 [#1&h0]
M  SAL  44  1  44
M  SED  44 [#1&h0]
M  END
>  <Activity>  (130) 
0.01

>  <Mapped(file=2032.csv.activities,property=Cached(PUBCHEM_COMPOUND_CID))>  (130) 
100

>  <MatchIndices>  (130) 
62 

>  <PUBCHEM_ATOM_DEF_STEREO_COUNT>  (130) 
0

>  <PUBCHEM_ATOM_UDEF_STEREO_COUNT>  (130) 
0

>  <PUBCHEM_BONDANNOTATIONS>  (130) 
18  21  8
18  22  8
21  23  8
22  24  8
23  25  8
24  25  8
5  17  8
5  20  8
8  17  8
8  9  8
9  20  8

>  <PUBCHEM_BOND_DEF_STEREO_COUNT>  (130) 
0

>  <PUBCHEM_BOND_UDEF_STEREO_COUNT>  (130) 
0

>  <PUBCHEM_CACTVS_COMPLEXITY>  (130) 
439

>  <PUBCHEM_CACTVS_HBOND_ACCEPTOR>  (130) 
4

>  <PUBCHEM_CACTVS_HBOND_DONOR>  (130) 
1

>  <PUBCHEM_CACTVS_ROTATABLE_BOND>  (130) 
8

>  <PUBCHEM_CACTVS_SUBSKEYS>  (130) 
AAADceB7MABGAAAAAAAAAAAAAAAAAWAAAAAwAAAAAAAAAAABwAAAHgYYAAAADEbF2iSyCILABEiqAiFyGAASAABoBRAaiIE4AokIICqhUxCMIAAingAIiAcAgAAOBAAAAACBAAAIAAAAAQIAAAAAAAAAAA==

>  <PUBCHEM_CACTVS_TAUTO_COUNT>  (130) 
2

>  <PUBCHEM_CACTVS_TPSA>  (130) 
103

>  <PUBCHEM_COMPONENT_COUNT>  (130) 
1

>  <PUBCHEM_COMPOUND_CANONICALIZED>  (130) 
1

>  <PUBCHEM_COMPOUND_CID>  (130) 
1988912

>  <PUBCHEM_COORDINATE_TYPE>  (130) 
1
5
255

>  <PUBCHEM_EXACT_MASS>  (130) 
403.052418

>  <PUBCHEM_HEAVY_ATOM_COUNT>  (130) 
25

>  <PUBCHEM_ISOTOPIC_ATOM_COUNT>  (130) 
0

>  <PUBCHEM_IUPAC_CAS_NAME>  (130) 
N-[2-[5-[(2,4-dichlorophenyl)methylthio]-1,3,4-oxadiazol-2-yl]ethyl]carbamic acid tert-butyl ester

>  <PUBCHEM_IUPAC_INCHI>  (130) 
InChI=1S/C16H19Cl2N3O3S/c1-16(2,3)24-14(22)19-7-6-13-20-21-15(23-13)25-9-10-4-5-11(17)8-12(10)18/h4-5,8H,6-7,9H2,1-3H3,(H,19,22)

>  <PUBCHEM_IUPAC_INCHIKEY>  (130) 
WYZRCOGHLUWLER-UHFFFAOYSA-N

>  <PUBCHEM_IUPAC_NAME>  (130) 
tert-butyl N-[2-[5-[(2,4-dichlorophenyl)methylsulfanyl]-1,3,4-oxadiazol-2-yl]ethyl]carbamate

>  <PUBCHEM_IUPAC_OPENEYE_NAME>  (130) 
tert-butyl N-[2-[5-[(2,4-dichlorophenyl)methylsulfanyl]-1,3,4-oxadiazol-2-yl]ethyl]carbamate

>  <PUBCHEM_IUPAC_SYSTEMATIC_NAME>  (130) 
tert-butyl N-[2-[5-[(2,4-dichlorophenyl)methylsulfanyl]-1,3,4-oxadiazol-2-yl]ethyl]carbamate

>  <PUBCHEM_IUPAC_TRADITIONAL_NAME>  (130) 
N-[2-[5-[(2,4-dichlorobenzyl)thio]-1,3,4-oxadiazol-2-yl]ethyl]carbamic acid tert-butyl ester

>  <PUBCHEM_MOLECULAR_FORMULA>  (130) 
C16H19Cl2N3O3S

>  <PUBCHEM_MOLECULAR_WEIGHT>  (130) 
404.31136

>  <PUBCHEM_MONOISOTOPIC_WEIGHT>  (130) 
403.052418

>  <PUBCHEM_OPENEYE_CAN_SMILES>  (130) 
CC(C)(C)OC(=O)NCCC1=NN=C(O1)SCC2=C(C=C(C=C2)Cl)Cl

>  <PUBCHEM_OPENEYE_ISO_SMILES>  (130) 
CC(C)(C)OC(=O)NCCC1=NN=C(O1)SCC2=C(C=C(C=C2)Cl)Cl

>  <PUBCHEM_TOTAL_CHARGE>  (130) 
0

>  <PUBCHEM_XLOGP3_AA>  (130) 
4.3

$$$$
Largest isolated from Written by BCL::WriteToMDL,17367442
     RDKit          2D

 47 49  0 47  0  0  0  0  0  0999 V2000
   -5.7880    2.0899    0.0000 O   0  0  0  0  0  0  0  0  0  0  0  0
   -0.0082   -2.6897    0.0000 N   0  0  0  0  0  0  0  0  0  0  0  0
    6.6342   -1.0182    0.0000 N   0  0  0  0  0  0  0  0  0  0  0  0
    2.8034   -1.6434    0.0000 C   0  0  0  0  0  0  0  0  0  0  0  0
    4.2093   -1.1203    0.0000 C   0  0  0  0  0  0  0  0  0  0  0  0
    1.3976   -2.1666    0.0000 C   0  0  0  0  0  0  0  0  0  0  0  0
    4.6124    0.3245    0.0000 C   0  0  0  0  0  0  0  0  0  0  0  0
   -1.1642   -1.7338    0.0000 C   0  0  0  0  0  0  0  0  0  0  0  0
   -2.3201   -0.7779    0.0000 C   0  0  0  0  0  0  0  0  0  0  0  0
    6.1110    0.3876    0.0000 C   0  0  0  0  0  0  0  0  0  0  0  0
    5.4588   -1.9502    0.0000 C   0  0  0  0  0  0  0  0  0  0  0  0
   -3.7259   -1.3010    0.0000 C   0  0  0  0  0  0  0  0  0  0  0  0
   -2.0702    0.7012    0.0000 C   0  0  0  0  0  0  0  0  0  0  0  0
    3.8084    1.5908    0.0000 C   0  0  0  0  0  0  0  0  0  0  0  0
   -3.2262    1.6571    0.0000 C   0  0  0  0  0  0  0  0  0  0  0  0
    6.8057    1.7170    0.0000 C   0  0  0  0  0  0  0  0  0  0  0  0
   -4.8819   -0.3451    0.0000 C   0  0  0  0  0  0  0  0  0  0  0  0
   -4.6320    1.1340    0.0000 C   0  0  0  0  0  0  0  0  0  0  0  0
   -3.9758   -2.7800    0.0000 C   0  0  0  0  0  0  0  0  0  0  0  0
    4.5031    2.9203    0.0000 C   0  0  0  0  0  0  0  0  0  0  0  0
    6.0017    2.9834    0.0000 C   0  0  0  0  0  0  0  0  0  0  0  0
   -2.9763    3.1361    0.0000 C   0  0  0  0  0  0  0  0  0  0  0  0
   -7.1938    1.5668    0.0000 C   0  0  0  0  0  0  0  0  0  0  0  0
    2.2803   -0.2376    0.0000 H   0  0  0  0  0  0  0  0  0  0  0  0
    3.3266   -3.0493    0.0000 H   0  0  0  0  0  0  0  0  0  0  0  0
    1.9207   -3.5724    0.0000 H   0  0  0  0  0  0  0  0  0  0  0  0
    0.8745   -0.7607    0.0000 H   0  0  0  0  0  0  0  0  0  0  0  0
   -1.8186   -2.7575    0.0000 H   0  0  0  0  0  0  0  0  0  0  0  0
   -0.2083   -0.5778    0.0000 H   0  0  0  0  0  0  0  0  0  0  0  0
   -0.2581   -4.1687    0.0000 H   0  0  0  0  0  0  0  0  0  0  0  0
    5.5219   -3.4488    0.0000 H   0  0  0  0  0  0  0  0  0  0  0  0
    8.0790   -1.4213    0.0000 H   0  0  0  0  0  0  0  0  0  0  0  0
   -0.6644    1.2243    0.0000 H   0  0  0  0  0  0  0  0  0  0  0  0
    2.3097    1.5277    0.0000 H   0  0  0  0  0  0  0  0  0  0  0  0
    8.3044    1.7801    0.0000 H   0  0  0  0  0  0  0  0  0  0  0  0
   -6.2877   -0.8682    0.0000 H   0  0  0  0  0  0  0  0  0  0  0  0
   -5.4549   -2.5302    0.0000 H   0  0  0  0  0  0  0  0  0  0  0  0
   -2.8114   -3.1270    0.0000 H   0  0  0  0  0  0  0  0  0  0  0  0
   -4.2257   -4.2591    0.0000 H   0  0  0  0  0  0  0  0  0  0  0  0
    3.6991    4.1866    0.0000 H   0  0  0  0  0  0  0  0  0  0  0  0
    6.6964    4.3128    0.0000 H   0  0  0  0  0  0  0  0  0  0  0  0
   -4.4554    3.3860    0.0000 H   0  0  0  0  0  0  0  0  0  0  0  0
   -1.4973    2.8863    0.0000 H   0  0  0  0  0  0  0  0  0  0  0  0
   -2.7265    4.6152    0.0000 H   0  0  0  0  0  0  0  0  0  0  0  0
   -7.7169    2.9726    0.0000 H   0  0  0  0  0  0  0  0  0  0  0  0
   -6.6707    0.1609    0.0000 H   0  0  0  0  0  0  0  0  0  0  0  0
   -8.5996    1.0436    0.0000 H   0  0  0  0  0  0  0  0  0  0  0  0
  1 18  1  0
  1 23  1  0
  2  6  1  0
  2  8  1  0
  2 30  1  0
  3 10  1  0
  3 11  1  0
  3 32  1  0
  4  5  1  0
  4  6  1  0
  4 24  1  0
  4 25  1  0
  5  7  1  0
  5 11  2  0
  6 26  1  0
  6 27  1  0
  7 10  2  0
  7 14  1  0
  8  9  1  0
  8 28  1  0
  8 29  1  0
  9 12  2  0
  9 13  1  0
 10 16  1  0
 11 31  1  0
 12 17  1  0
 12 19  1  0
 13 15  2  0
 13 33  1  0
 14 20  2  0
 14 34  1  0
 15 18  1  0
 15 22  1  0
 16 21  2  0
 16 35  1  0
 17 18  2  0
 17 36  1  0
 19 37  1  0
 19 38  1  0
 19 39  1  0
 20 21  1  0
 20 40  1  0
 21 41  1  0
 22 42  1  0
 22 43  1  0
 22 44  1  0
 23 45  1  0
 23 46  1  0
 23 47  1  0
M  STY  8   1 DAT   2 DAT   3 DAT   4 DAT   5 DAT   6 DAT   7 DAT   8 DAT
M  STY  8   9 DAT  10 DAT  11 DAT  12 DAT  13 DAT  14 DAT  15 DAT  16 DAT
M  STY  8  17 DAT  18 DAT  19 DAT  20 DAT  21 DAT  22 DAT  23 DAT  24 DAT
M  STY  8  25 DAT  26 DAT  27 DAT  28 DAT  29 DAT  30 DAT  31 DAT  32 DAT
M  STY  8  33 DAT  34 DAT  35 DAT  36 DAT  37 DAT  38 DAT  39 DAT  40 DAT
M  STY  7  41 DAT  42 DAT  43 DAT  44 DAT  45 DAT  46 DAT  47 DAT
M  SAL   1  1   1
M  SED   1 [#8&h0]
M  SAL   2  1   2
M  SED   2 [#7&h0]
M  SAL   3  1   3
M  SED   3 [#7&h0]
M  SAL   4  1   4
M  SED   4 [#6&h0]
M  SAL   5  1   5
M  SED   5 [#6&h0]
M  SAL   6  1   6
M  SED   6 [#6&h0]
M  SAL   7  1   7
M  SED   7 [#6&h0]
M  SAL   8  1   8
M  SED   8 [#6&h0]
M  SAL   9  1   9
M  SED   9 [#6&h0]
M  SAL  10  1  10
M  SED  10 [#6&h0]
M  SAL  11  1  11
M  SED  11 [#6&h0]
M  SAL  12  1  12
M  SED  12 [#6&h0]
M  SAL  13  1  13
M  SED  13 [#6&h0]
M  SAL  14  1  14
M  SED  14 [#6&h0]
M  SAL  15  1  15
M  SED  15 [#6&h0]
M  SAL  16  1  16
M  SED  16 [#6&h0]
M  SAL  17  1  17
M  SED  17 [#6&h0]
M  SAL  18  1  18
M  SED  18 [#6&h0]
M  SAL  19  1  19
M  SED  19 [#6&h0]
M  SAL  20  1  20
M  SED  20 [#6&h0]
M  SAL  21  1  21
M  SED  21 [#6&h0]
M  SAL  22  1  22
M  SED  22 [#6&h0]
M  SAL  23  1  23
M  SED  23 [#6&h0]
M  SAL  24  1  24
M  SED  24 [#1&h0]
M  SAL  25  1  25
M  SED  25 [#1&h0]
M  SAL  26  1  26
M  SED  26 [#1&h0]
M  SAL  27  1  27
M  SED  27 [#1&h0]
M  SAL  28  1  28
M  SED  28 [#1&h0]
M  SAL  29  1  29
M  SED  29 [#1&h0]
M  SAL  30  1  30
M  SED  30 [#1&h0]
M  SAL  31  1  31
M  SED  31 [#1&h0]
M  SAL  32  1  32
M  SED  32 [#1&h0]
M  SAL  33  1  33
M  SED  33 [#1&h0]
M  SAL  34  1  34
M  SED  34 [#1&h0]
M  SAL  35  1  35
M  SED  35 [#1&h0]
M  SAL  36  1  36
M  SED  36 [#1&h0]
M  SAL  37  1  37
M  SED  37 [#1&h0]
M  SAL  38  1  38
M  SED  38 [#1&h0]
M  SAL  39  1  39
M  SED  39 [#1&h0]
M  SAL  40  1  40
M  SED  40 [#1&h0]
M  SAL  41  1  41
M  SED  41 [#1&h0]
M  SAL  42  1  42
M  SED  42 [#1&h0]
M  SAL  43  1  43
M  SED  43 [#1&h0]
M  SAL  44  1  44
M  SED  44 [#1&h0]
M  SAL  45  1  45
M  SED  45 [#1&h0]
M  SAL  46  1  46
M  SED  46 [#1&h0]
M  SAL  47  1  47
M  SED  47 [#1&h0]
M  END
>  <Activity>  (131) 
0.01

>  <Mapped(file=2032.csv.activities,property=Cached(PUBCHEM_COMPOUND_CID))>  (131) 
100

>  <MatchIndices>  (131) 
189 

>  <PUBCHEM_ATOM_DEF_STEREO_COUNT>  (131) 
0

>  <PUBCHEM_ATOM_UDEF_STEREO_COUNT>  (131) 
0

>  <PUBCHEM_BONDANNOTATIONS>  (131) 
11  14  8
11  18  8
13  16  8
13  17  8
14  20  8
16  21  8
17  19  8
18  24  8
19  22  8
20  25  8
21  22  8
24  25  8
7  14  8
7  15  8
9  11  8
9  15  8

>  <PUBCHEM_BOND_DEF_STEREO_COUNT>  (131) 
0

>  <PUBCHEM_BOND_UDEF_STEREO_COUNT>  (131) 
0

>  <PUBCHEM_CACTVS_COMPLEXITY>  (131) 
433

>  <PUBCHEM_CACTVS_HBOND_ACCEPTOR>  (131) 
6

>  <PUBCHEM_CACTVS_HBOND_DONOR>  (131) 
4

>  <PUBCHEM_CACTVS_ROTATABLE_BOND>  (131) 
7

>  <PUBCHEM_CACTVS_SUBSKEYS>  (131) 
AAADceB7OAAAAAAAAAAAAAAAAAAAAWAAAAAwYAAAAAAAAFgB9AAAHgAQCAAADAzBngY+zvLJlgCoAzT3TAKCiCAxIiAI2aB+bJgNJuLEsZuEMChk0BHJ6AeQ0PIO4AADAAAaAADAAAYAADQAAAAAAAAAAA==

>  <PUBCHEM_CACTVS_TAUTO_COUNT>  (131) 
1

>  <PUBCHEM_CACTVS_TPSA>  (131) 
112

>  <PUBCHEM_COMPONENT_COUNT>  (131) 
2

>  <PUBCHEM_COMPOUND_CANONICALIZED>  (131) 
1

>  <PUBCHEM_COMPOUND_CID>  (131) 
17367442

>  <PUBCHEM_COORDINATE_TYPE>  (131) 
1
5
255

>  <PUBCHEM_EXACT_MASS>  (131) 
398.184172

>  <PUBCHEM_HEAVY_ATOM_COUNT>  (131) 
29

>  <PUBCHEM_ISOTOPIC_ATOM_COUNT>  (131) 
0

>  <PUBCHEM_IUPAC_CAS_NAME>  (131) 
2-(1H-indol-3-yl)-N-[(4-methoxy-2,5-dimethylphenyl)methyl]ethanamine; oxalic acid

>  <PUBCHEM_IUPAC_INCHI>  (131) 
InChI=1S/C20H24N2O.C2H2O4/c1-14-11-20(23-3)15(2)10-17(14)12-21-9-8-16-13-22-19-7-5-4-6-18(16)19;3-1(4)2(5)6/h4-7,10-11,13,21-22H,8-9,12H2,1-3H3;(H,3,4)(H,5,6)

>  <PUBCHEM_IUPAC_INCHIKEY>  (131) 
HALYDUNWFXRVEL-UHFFFAOYSA-N

>  <PUBCHEM_IUPAC_NAME>  (131) 
2-(1H-indol-3-yl)-N-[(4-methoxy-2,5-dimethylphenyl)methyl]ethanamine; oxalic acid

>  <PUBCHEM_IUPAC_OPENEYE_NAME>  (131) 
2-(1H-indol-3-yl)-N-[(4-methoxy-2,5-dimethyl-phenyl)methyl]ethanamine; oxalic acid

>  <PUBCHEM_IUPAC_SYSTEMATIC_NAME>  (131) 
ethanedioic acid; 2-(1H-indol-3-yl)-N-[(4-methoxy-2,5-dimethyl-phenyl)methyl]ethanamine

>  <PUBCHEM_IUPAC_TRADITIONAL_NAME>  (131) 
2-(1H-indol-3-yl)ethyl-(4-methoxy-2,5-dimethyl-benzyl)amine; oxalic acid

>  <PUBCHEM_MOLECULAR_FORMULA>  (131) 
C22H26N2O5

>  <PUBCHEM_MOLECULAR_WEIGHT>  (131) 
398.45224

>  <PUBCHEM_MONOISOTOPIC_WEIGHT>  (131) 
398.184172

>  <PUBCHEM_OPENEYE_CAN_SMILES>  (131) 
CC1=CC(=C(C=C1CNCCC2=CNC3=CC=CC=C32)C)OC.C(=O)(C(=O)O)O

>  <PUBCHEM_OPENEYE_ISO_SMILES>  (131) 
CC1=CC(=C(C=C1CNCCC2=CNC3=CC=CC=C32)C)OC.C(=O)(C(=O)O)O

>  <PUBCHEM_TOTAL_CHARGE>  (131) 
0

$$$$
Largest isolated from Written by BCL::WriteToMDL,2813491
     RDKit          2D

 40 42  0 40  0  0  0  0  0  0999 V2000
   -6.1560   -3.1483    0.0000 Cl  0  0  0  0  0  0  0  0  0  0  0  0
   -1.7676   -0.3659    0.0000 S   0  0  0  0  0  0  0  0  0  0  0  0
   -7.7624   -0.6146    0.0000 F   0  0  0  0  0  0  0  0  0  0  0  0
    4.3349   -2.7130    0.0000 O   0  0  0  0  0  0  0  0  0  0  0  0
   -1.8298    1.1328    0.0000 O   0  0  0  0  0  0  0  0  0  0  0  0
   -1.7054   -1.8646    0.0000 O   0  0  0  0  0  0  0  0  0  0  0  0
    2.7285   -0.1793    0.0000 N   0  0  0  0  0  0  0  0  0  0  0  0
   -0.2689   -0.3037    0.0000 N   0  0  0  0  0  0  0  0  0  0  0  0
    2.0330   -1.5083    0.0000 C   0  0  0  0  0  0  0  0  0  0  0  0
    4.2272   -0.1171    0.0000 C   0  0  0  0  0  0  0  0  0  0  0  0
    1.9253    1.0875    0.0000 C   0  0  0  0  0  0  0  0  0  0  0  0
    2.8362   -2.7752    0.0000 C   0  0  0  0  0  0  0  0  0  0  0  0
    5.0304   -1.3840    0.0000 C   0  0  0  0  0  0  0  0  0  0  0  0
    0.4266    1.0253    0.0000 C   0  0  0  0  0  0  0  0  0  0  0  0
    2.6208    2.4165    0.0000 C   0  0  0  0  0  0  0  0  0  0  0  0
   -0.3766    2.2922    0.0000 C   0  0  0  0  0  0  0  0  0  0  0  0
    1.8176    3.6833    0.0000 C   0  0  0  0  0  0  0  0  0  0  0  0
    0.3189    3.6212    0.0000 C   0  0  0  0  0  0  0  0  0  0  0  0
   -3.2663   -0.4281    0.0000 C   0  0  0  0  0  0  0  0  0  0  0  0
   -3.9618   -1.7571    0.0000 C   0  0  0  0  0  0  0  0  0  0  0  0
   -4.0695    0.8388    0.0000 C   0  0  0  0  0  0  0  0  0  0  0  0
   -5.4605   -1.8193    0.0000 C   0  0  0  0  0  0  0  0  0  0  0  0
   -5.5682    0.7766    0.0000 C   0  0  0  0  0  0  0  0  0  0  0  0
   -6.2637   -0.5524    0.0000 C   0  0  0  0  0  0  0  0  0  0  0  0
    0.9249   -2.5193    0.0000 H   0  0  0  0  0  0  0  0  0  0  0  0
    0.8450   -0.5926    0.0000 H   0  0  0  0  0  0  0  0  0  0  0  0
    3.9058    1.3480    0.0000 H   0  0  0  0  0  0  0  0  0  0  0  0
    5.6143    0.4539    0.0000 H   0  0  0  0  0  0  0  0  0  0  0  0
    3.1577   -4.2403    0.0000 H   0  0  0  0  0  0  0  0  0  0  0  0
    1.4492   -3.3462    0.0000 H   0  0  0  0  0  0  0  0  0  0  0  0
    6.1386   -0.3730    0.0000 H   0  0  0  0  0  0  0  0  0  0  0  0
    6.2185   -2.2997    0.0000 H   0  0  0  0  0  0  0  0  0  0  0  0
    4.1195    2.4787    0.0000 H   0  0  0  0  0  0  0  0  0  0  0  0
    0.5343   -1.5705    0.0000 H   0  0  0  0  0  0  0  0  0  0  0  0
   -1.8753    2.2300    0.0000 H   0  0  0  0  0  0  0  0  0  0  0  0
    2.5131    5.0124    0.0000 H   0  0  0  0  0  0  0  0  0  0  0  0
   -0.4843    4.8880    0.0000 H   0  0  0  0  0  0  0  0  0  0  0  0
   -3.1586   -3.0239    0.0000 H   0  0  0  0  0  0  0  0  0  0  0  0
   -3.3740    2.1678    0.0000 H   0  0  0  0  0  0  0  0  0  0  0  0
   -6.3714    2.0434    0.0000 H   0  0  0  0  0  0  0  0  0  0  0  0
  1 22  1  0
  2  5  2  0
  2  6  2  0
  2  8  1  0
  2 19  1  0
  3 24  1  0
  4 12  1  0
  4 13  1  0
  7  9  1  0
  7 10  1  0
  7 11  1  0
  8 14  1  0
  8 34  1  0
  9 12  1  0
  9 25  1  0
  9 26  1  0
 10 13  1  0
 10 27  1  0
 10 28  1  0
 11 14  1  0
 11 15  2  0
 12 29  1  0
 12 30  1  0
 13 31  1  0
 13 32  1  0
 14 16  2  0
 15 17  1  0
 15 33  1  0
 16 18  1  0
 16 35  1  0
 17 18  2  0
 17 36  1  0
 18 37  1  0
 19 20  2  0
 19 21  1  0
 20 22  1  0
 20 38  1  0
 21 23  2  0
 21 39  1  0
 22 24  2  0
 23 24  1  0
 23 40  1  0
M  STY  8   1 DAT   2 DAT   3 DAT   4 DAT   5 DAT   6 DAT   7 DAT   8 DAT
M  STY  8   9 DAT  10 DAT  11 DAT  12 DAT  13 DAT  14 DAT  15 DAT  16 DAT
M  STY  8  17 DAT  18 DAT  19 DAT  20 DAT  21 DAT  22 DAT  23 DAT  24 DAT
M  STY  8  25 DAT  26 DAT  27 DAT  28 DAT  29 DAT  30 DAT  31 DAT  32 DAT
M  STY  8  33 DAT  34 DAT  35 DAT  36 DAT  37 DAT  38 DAT  39 DAT  40 DAT
M  SAL   1  1   1
M  SED   1 [#17&h0]
M  SAL   2  1   2
M  SED   2 [#16&h0]
M  SAL   3  1   3
M  SED   3 [#9&h0]
M  SAL   4  1   4
M  SED   4 [#8&h0]
M  SAL   5  1   5
M  SED   5 [#8&h0]
M  SAL   6  1   6
M  SED   6 [#8&h0]
M  SAL   7  1   7
M  SED   7 [#7&h0]
M  SAL   8  1   8
M  SED   8 [#7&h0]
M  SAL   9  1   9
M  SED   9 [#6&h0]
M  SAL  10  1  10
M  SED  10 [#6&h0]
M  SAL  11  1  11
M  SED  11 [#6&h0]
M  SAL  12  1  12
M  SED  12 [#6&h0]
M  SAL  13  1  13
M  SED  13 [#6&h0]
M  SAL  14  1  14
M  SED  14 [#6&h0]
M  SAL  15  1  15
M  SED  15 [#6&h0]
M  SAL  16  1  16
M  SED  16 [#6&h0]
M  SAL  17  1  17
M  SED  17 [#6&h0]
M  SAL  18  1  18
M  SED  18 [#6&h0]
M  SAL  19  1  19
M  SED  19 [#6&h0]
M  SAL  20  1  20
M  SED  20 [#6&h0]
M  SAL  21  1  21
M  SED  21 [#6&h0]
M  SAL  22  1  22
M  SED  22 [#6&h0]
M  SAL  23  1  23
M  SED  23 [#6&h0]
M  SAL  24  1  24
M  SED  24 [#6&h0]
M  SAL  25  1  25
M  SED  25 [#1&h0]
M  SAL  26  1  26
M  SED  26 [#1&h0]
M  SAL  27  1  27
M  SED  27 [#1&h0]
M  SAL  28  1  28
M  SED  28 [#1&h0]
M  SAL  29  1  29
M  SED  29 [#1&h0]
M  SAL  30  1  30
M  SED  30 [#1&h0]
M  SAL  31  1  31
M  SED  31 [#1&h0]
M  SAL  32  1  32
M  SED  32 [#1&h0]
M  SAL  33  1  33
M  SED  33 [#1&h0]
M  SAL  34  1  34
M  SED  34 [#1&h0]
M  SAL  35  1  35
M  SED  35 [#1&h0]
M  SAL  36  1  36
M  SED  36 [#1&h0]
M  SAL  37  1  37
M  SED  37 [#1&h0]
M  SAL  38  1  38
M  SED  38 [#1&h0]
M  SAL  39  1  39
M  SED  39 [#1&h0]
M  SAL  40  1  40
M  SED  40 [#1&h0]
M  END
>  <Activity>  (132) 
0.01

>  <Mapped(file=2032.csv.activities,property=Cached(PUBCHEM_COMPOUND_CID))>  (132) 
100

>  <MatchIndices>  (132) 
218 

>  <PUBCHEM_ATOM_DEF_STEREO_COUNT>  (132) 
0

>  <PUBCHEM_ATOM_UDEF_STEREO_COUNT>  (132) 
0

>  <PUBCHEM_BONDANNOTATIONS>  (132) 
11  14  8
11  15  8
14  16  8
15  17  8
16  18  8
17  18  8
19  20  8
19  21  8
20  22  8
21  23  8
22  24  8
23  24  8

>  <PUBCHEM_BOND_DEF_STEREO_COUNT>  (132) 
0

>  <PUBCHEM_BOND_UDEF_STEREO_COUNT>  (132) 
0

>  <PUBCHEM_CACTVS_COMPLEXITY>  (132) 
510

>  <PUBCHEM_CACTVS_HBOND_ACCEPTOR>  (132) 
6

>  <PUBCHEM_CACTVS_HBOND_DONOR>  (132) 
1

>  <PUBCHEM_CACTVS_ROTATABLE_BOND>  (132) 
4

>  <PUBCHEM_CACTVS_SUBSKEYS>  (132) 
AAADceB7MQBEAAAAAAAAAAAAAAAAAAAAAAA8YIAAAAAAAAABQAAAHwYQQAAACArh0C4wwYNABAKAACRCQHDCABAhBwAIiBgIdogKYCLBk5GXIAhgkADYyAcQAAAAAAAAABAAACAAAAAAIAAAQAAAAAAAAA==

>  <PUBCHEM_CACTVS_TAUTO_COUNT>  (132) 
1

>  <PUBCHEM_CACTVS_TPSA>  (132) 
67

>  <PUBCHEM_COMPONENT_COUNT>  (132) 
1

>  <PUBCHEM_COMPOUND_CANONICALIZED>  (132) 
1

>  <PUBCHEM_COMPOUND_CID>  (132) 
2813491

>  <PUBCHEM_COORDINATE_TYPE>  (132) 
1
5
255

>  <PUBCHEM_EXACT_MASS>  (132) 
370.055419

>  <PUBCHEM_HEAVY_ATOM_COUNT>  (132) 
24

>  <PUBCHEM_ISOTOPIC_ATOM_COUNT>  (132) 
0

>  <PUBCHEM_IUPAC_CAS_NAME>  (132) 
3-chloro-4-fluoro-N-[2-(4-morpholinyl)phenyl]benzenesulfonamide

>  <PUBCHEM_IUPAC_INCHI>  (132) 
InChI=1S/C16H16ClFN2O3S/c17-13-11-12(5-6-14(13)18)24(21,22)19-15-3-1-2-4-16(15)20-7-9-23-10-8-20/h1-6,11,19H,7-10H2

>  <PUBCHEM_IUPAC_INCHIKEY>  (132) 
MPADTGIRWYVDPN-UHFFFAOYSA-N

>  <PUBCHEM_IUPAC_NAME>  (132) 
3-chloro-4-fluoro-N-(2-morpholin-4-ylphenyl)benzenesulfonamide

>  <PUBCHEM_IUPAC_OPENEYE_NAME>  (132) 
3-chloro-4-fluoro-N-(2-morpholinophenyl)benzenesulfonamide

>  <PUBCHEM_IUPAC_SYSTEMATIC_NAME>  (132) 
3-chloranyl-4-fluoranyl-N-(2-morpholin-4-ylphenyl)benzenesulfonamide

>  <PUBCHEM_IUPAC_TRADITIONAL_NAME>  (132) 
3-chloro-4-fluoro-N-(2-morpholinophenyl)benzenesulfonamide

>  <PUBCHEM_MOLECULAR_FORMULA>  (132) 
C16H16ClFN2O3S

>  <PUBCHEM_MOLECULAR_WEIGHT>  (132) 
370.826243

>  <PUBCHEM_MONOISOTOPIC_WEIGHT>  (132) 
370.055419

>  <PUBCHEM_OPENEYE_CAN_SMILES>  (132) 
C1COCCN1C2=CC=CC=C2NS(=O)(=O)C3=CC(=C(C=C3)F)Cl

>  <PUBCHEM_OPENEYE_ISO_SMILES>  (132) 
C1COCCN1C2=CC=CC=C2NS(=O)(=O)C3=CC(=C(C=C3)F)Cl

>  <PUBCHEM_TOTAL_CHARGE>  (132) 
0

>  <PUBCHEM_XLOGP3_AA>  (132) 
2.9

$$$$
Largest isolated from Written by BCL::WriteToMDL,2951933
     RDKit          2D

 42 44  0 42  0  0  0  0  0  0999 V2000
    0.6300   -0.3577    0.0000 S   0  0  0  0  0  0  0  0  0  0  0  0
   -3.6158   -1.8488    0.0000 O   0  0  0  0  0  0  0  0  0  0  0  0
    3.2275   -0.9885    0.0000 N   0  0  0  0  0  0  0  0  0  0  0  0
    1.6465   -2.8299    0.0000 N   0  0  0  0  0  0  0  0  0  0  0  0
    3.0308   -3.4076    0.0000 N   0  0  0  0  0  0  0  0  0  0  0  0
    3.8051    0.3958    0.0000 C   0  0  0  0  0  0  0  0  0  0  0  0
    1.7680   -1.3349    0.0000 C   0  0  0  0  0  0  0  0  0  0  0  0
    4.0079   -2.2695    0.0000 C   0  0  0  0  0  0  0  0  0  0  0  0
   -0.7853   -0.8548    0.0000 C   0  0  0  0  0  0  0  0  0  0  0  0
   -2.2005   -1.3518    0.0000 C   0  0  0  0  0  0  0  0  0  0  0  0
   -4.7539   -0.8717    0.0000 C   0  0  0  0  0  0  0  0  0  0  0  0
    5.2928    0.5877    0.0000 C   0  0  0  0  0  0  0  0  0  0  0  0
    2.8951    1.5882    0.0000 C   0  0  0  0  0  0  0  0  0  0  0  0
   -4.4767    0.6025    0.0000 C   0  0  0  0  0  0  0  0  0  0  0  0
    5.5030   -2.3911    0.0000 C   0  0  0  0  0  0  0  0  0  0  0  0
   -6.1691   -1.3687    0.0000 C   0  0  0  0  0  0  0  0  0  0  0  0
    5.8704    1.9721    0.0000 C   0  0  0  0  0  0  0  0  0  0  0  0
    3.4727    2.9725    0.0000 C   0  0  0  0  0  0  0  0  0  0  0  0
   -5.6148    1.5796    0.0000 C   0  0  0  0  0  0  0  0  0  0  0  0
    4.9604    3.1645    0.0000 C   0  0  0  0  0  0  0  0  0  0  0  0
   -3.0614    1.0995    0.0000 C   0  0  0  0  0  0  0  0  0  0  0  0
   -7.3072   -0.3916    0.0000 C   0  0  0  0  0  0  0  0  0  0  0  0
   -7.0300    1.0826    0.0000 C   0  0  0  0  0  0  0  0  0  0  0  0
   -1.2823    0.5605    0.0000 H   0  0  0  0  0  0  0  0  0  0  0  0
   -0.2883   -2.2700    0.0000 H   0  0  0  0  0  0  0  0  0  0  0  0
   -2.3710   -0.5731    0.0000 H   0  0  0  0  0  0  0  0  0  0  0  0
   -1.7035   -2.7671    0.0000 H   0  0  0  0  0  0  0  0  0  0  0  0
    6.1422   -0.2810    0.0000 H   0  0  0  0  0  0  0  0  0  0  0  0
    1.4074    1.3963    0.0000 H   0  0  0  0  0  0  0  0  0  0  0  0
    5.7484   -1.2011    0.0000 H   0  0  0  0  0  0  0  0  0  0  0  0
    5.3814   -3.8861    0.0000 H   0  0  0  0  0  0  0  0  0  0  0  0
    6.9981   -2.5127    0.0000 H   0  0  0  0  0  0  0  0  0  0  0  0
   -6.4463   -2.8429    0.0000 H   0  0  0  0  0  0  0  0  0  0  0  0
    7.3581    2.1640    0.0000 H   0  0  0  0  0  0  0  0  0  0  0  0
    2.5627    4.1649    0.0000 H   0  0  0  0  0  0  0  0  0  0  0  0
   -5.3376    3.0538    0.0000 H   0  0  0  0  0  0  0  0  0  0  0  0
   -3.5585    2.5148    0.0000 H   0  0  0  0  0  0  0  0  0  0  0  0
   -2.7076    0.3852    0.0000 H   0  0  0  0  0  0  0  0  0  0  0  0
   -1.6462    1.5965    0.0000 H   0  0  0  0  0  0  0  0  0  0  0  0
    5.5380    4.5488    0.0000 H   0  0  0  0  0  0  0  0  0  0  0  0
   -8.7225   -0.8886    0.0000 H   0  0  0  0  0  0  0  0  0  0  0  0
   -8.1681    2.0597    0.0000 H   0  0  0  0  0  0  0  0  0  0  0  0
  1  7  1  0
  1  9  1  0
  2 10  1  0
  2 11  1  0
  3  6  1  0
  3  7  1  0
  3  8  1  0
  4  5  1  0
  4  7  2  0
  5  8  2  0
  6 12  2  0
  6 13  1  0
  8 15  1  0
  9 10  1  0
  9 24  1  0
  9 25  1  0
 10 26  1  0
 10 27  1  0
 11 14  2  0
 11 16  1  0
 12 17  1  0
 12 28  1  0
 13 18  2  0
 13 29  1  0
 14 19  1  0
 14 21  1  0
 15 30  1  0
 15 31  1  0
 15 32  1  0
 16 22  2  0
 16 33  1  0
 17 20  2  0
 17 34  1  0
 18 20  1  0
 18 35  1  0
 19 23  2  0
 19 36  1  0
 20 40  1  0
 21 37  1  0
 21 38  1  0
 21 39  1  0
 22 23  1  0
 22 41  1  0
 23 42  1  0
M  STY  8   1 DAT   2 DAT   3 DAT   4 DAT   5 DAT   6 DAT   7 DAT   8 DAT
M  STY  8   9 DAT  10 DAT  11 DAT  12 DAT  13 DAT  14 DAT  15 DAT  16 DAT
M  STY  8  17 DAT  18 DAT  19 DAT  20 DAT  21 DAT  22 DAT  23 DAT  24 DAT
M  STY  8  25 DAT  26 DAT  27 DAT  28 DAT  29 DAT  30 DAT  31 DAT  32 DAT
M  STY  8  33 DAT  34 DAT  35 DAT  36 DAT  37 DAT  38 DAT  39 DAT  40 DAT
M  STY  2  41 DAT  42 DAT
M  SAL   1  1   1
M  SED   1 [#16&h0]
M  SAL   2  1   2
M  SED   2 [#8&h0]
M  SAL   3  1   3
M  SED   3 [#7&h0]
M  SAL   4  1   4
M  SED   4 [#7&h0]
M  SAL   5  1   5
M  SED   5 [#7&h0]
M  SAL   6  1   6
M  SED   6 [#6&h0]
M  SAL   7  1   7
M  SED   7 [#6&h0]
M  SAL   8  1   8
M  SED   8 [#6&h0]
M  SAL   9  1   9
M  SED   9 [#6&h0]
M  SAL  10  1  10
M  SED  10 [#6&h0]
M  SAL  11  1  11
M  SED  11 [#6&h0]
M  SAL  12  1  12
M  SED  12 [#6&h0]
M  SAL  13  1  13
M  SED  13 [#6&h0]
M  SAL  14  1  14
M  SED  14 [#6&h0]
M  SAL  15  1  15
M  SED  15 [#6&h0]
M  SAL  16  1  16
M  SED  16 [#6&h0]
M  SAL  17  1  17
M  SED  17 [#6&h0]
M  SAL  18  1  18
M  SED  18 [#6&h0]
M  SAL  19  1  19
M  SED  19 [#6&h0]
M  SAL  20  1  20
M  SED  20 [#6&h0]
M  SAL  21  1  21
M  SED  21 [#6&h0]
M  SAL  22  1  22
M  SED  22 [#6&h0]
M  SAL  23  1  23
M  SED  23 [#6&h0]
M  SAL  24  1  24
M  SED  24 [#1&h0]
M  SAL  25  1  25
M  SED  25 [#1&h0]
M  SAL  26  1  26
M  SED  26 [#1&h0]
M  SAL  27  1  27
M  SED  27 [#1&h0]
M  SAL  28  1  28
M  SED  28 [#1&h0]
M  SAL  29  1  29
M  SED  29 [#1&h0]
M  SAL  30  1  30
M  SED  30 [#1&h0]
M  SAL  31  1  31
M  SED  31 [#1&h0]
M  SAL  32  1  32
M  SED  32 [#1&h0]
M  SAL  33  1  33
M  SED  33 [#1&h0]
M  SAL  34  1  34
M  SED  34 [#1&h0]
M  SAL  35  1  35
M  SED  35 [#1&h0]
M  SAL  36  1  36
M  SED  36 [#1&h0]
M  SAL  37  1  37
M  SED  37 [#1&h0]
M  SAL  38  1  38
M  SED  38 [#1&h0]
M  SAL  39  1  39
M  SED  39 [#1&h0]
M  SAL  40  1  40
M  SED  40 [#1&h0]
M  SAL  41  1  41
M  SED  41 [#1&h0]
M  SAL  42  1  42
M  SED  42 [#1&h0]
M  END
>  <Activity>  (133) 
0.01

>  <Mapped(file=2032.csv.activities,property=Cached(PUBCHEM_COMPOUND_CID))>  (133) 
100

>  <MatchIndices>  (133) 
50 

>  <PUBCHEM_ATOM_DEF_STEREO_COUNT>  (133) 
0

>  <PUBCHEM_ATOM_UDEF_STEREO_COUNT>  (133) 
0

>  <PUBCHEM_BONDANNOTATIONS>  (133) 
11  14  8
11  16  8
12  17  8
13  18  8
14  19  8
16  22  8
17  20  8
18  20  8
19  23  8
22  23  8
3  7  8
3  8  8
4  5  8
4  7  8
5  8  8
6  12  8
6  13  8

>  <PUBCHEM_BOND_DEF_STEREO_COUNT>  (133) 
0

>  <PUBCHEM_BOND_UDEF_STEREO_COUNT>  (133) 
0

>  <PUBCHEM_CACTVS_COMPLEXITY>  (133) 
351

>  <PUBCHEM_CACTVS_HBOND_ACCEPTOR>  (133) 
2

>  <PUBCHEM_CACTVS_HBOND_DONOR>  (133) 
0

>  <PUBCHEM_CACTVS_ROTATABLE_BOND>  (133) 
6

>  <PUBCHEM_CACTVS_SUBSKEYS>  (133) 
AAADceB7IABAAAAAAAAAAAAAAAAAAWAAAAAwYAAAAAAAAAAB0AAAHgQIAAAADAyl2wKz1ocMFAiiAiZiZACS2CthIrAdiAAWbIiMLiLEuZuGOCjkyBPI6CeQwCAOAAAAAAAIAAAAAAAAABAAAAAAAAAAAA==

>  <PUBCHEM_CACTVS_TAUTO_COUNT>  (133) 
1

>  <PUBCHEM_CACTVS_TPSA>  (133) 
65.2

>  <PUBCHEM_COMPONENT_COUNT>  (133) 
1

>  <PUBCHEM_COMPOUND_CANONICALIZED>  (133) 
1

>  <PUBCHEM_COMPOUND_CID>  (133) 
2951933

>  <PUBCHEM_COORDINATE_TYPE>  (133) 
1
5
255

>  <PUBCHEM_EXACT_MASS>  (133) 
325.124883

>  <PUBCHEM_HEAVY_ATOM_COUNT>  (133) 
23

>  <PUBCHEM_ISOTOPIC_ATOM_COUNT>  (133) 
0

>  <PUBCHEM_IUPAC_CAS_NAME>  (133) 
3-methyl-5-[2-(2-methylphenoxy)ethylthio]-4-phenyl-1,2,4-triazole

>  <PUBCHEM_IUPAC_INCHI>  (133) 
InChI=1S/C18H19N3OS/c1-14-8-6-7-11-17(14)22-12-13-23-18-20-19-15(2)21(18)16-9-4-3-5-10-16/h3-11H,12-13H2,1-2H3

>  <PUBCHEM_IUPAC_INCHIKEY>  (133) 
KROKZALZFQYMTH-UHFFFAOYSA-N

>  <PUBCHEM_IUPAC_NAME>  (133) 
3-methyl-5-[2-(2-methylphenoxy)ethylsulfanyl]-4-phenyl-1,2,4-triazole

>  <PUBCHEM_IUPAC_OPENEYE_NAME>  (133) 
3-methyl-5-[2-(2-methylphenoxy)ethylsulfanyl]-4-phenyl-1,2,4-triazole

>  <PUBCHEM_IUPAC_SYSTEMATIC_NAME>  (133) 
3-methyl-5-[2-(2-methylphenoxy)ethylsulfanyl]-4-phenyl-1,2,4-triazole

>  <PUBCHEM_IUPAC_TRADITIONAL_NAME>  (133) 
3-methyl-5-[2-(2-methylphenoxy)ethylthio]-4-phenyl-1,2,4-triazole

>  <PUBCHEM_MOLECULAR_FORMULA>  (133) 
C18H19N3OS

>  <PUBCHEM_MOLECULAR_WEIGHT>  (133) 
325.42796

>  <PUBCHEM_MONOISOTOPIC_WEIGHT>  (133) 
325.124883

>  <PUBCHEM_OPENEYE_CAN_SMILES>  (133) 
CC1=CC=CC=C1OCCSC2=NN=C(N2C3=CC=CC=C3)C

>  <PUBCHEM_OPENEYE_ISO_SMILES>  (133) 
CC1=CC=CC=C1OCCSC2=NN=C(N2C3=CC=CC=C3)C

>  <PUBCHEM_TOTAL_CHARGE>  (133) 
0

>  <PUBCHEM_XLOGP3_AA>  (133) 
4.4

$$$$
Largest isolated from Written by BCL::WriteToMDL,2053713
     RDKit          2D

 44 44  0 44  0  0  0  0  0  0999 V2000
    3.7476   -2.9709    0.0000 O   0  0  0  0  0  0  0  0  0  0  0  0
    2.1916   -0.8903    0.0000 N   0  0  0  0  0  0  0  0  0  0  0  0
   -0.5656    0.2920    0.0000 C   0  0  0  0  0  0  0  0  0  0  0  0
    0.8130   -0.2991    0.0000 C   0  0  0  0  0  0  0  0  0  0  0  0
   -1.9442    0.8832    0.0000 C   0  0  0  0  0  0  0  0  0  0  0  0
    0.0256    1.6706    0.0000 C   0  0  0  0  0  0  0  0  0  0  0  0
   -1.1567   -1.0866    0.0000 C   0  0  0  0  0  0  0  0  0  0  0  0
   -3.3228    1.4743    0.0000 C   0  0  0  0  0  0  0  0  0  0  0  0
    3.3929    0.0080    0.0000 C   0  0  0  0  0  0  0  0  0  0  0  0
    2.3690   -2.3798    0.0000 C   0  0  0  0  0  0  0  0  0  0  0  0
   -4.5240    0.5760    0.0000 C   0  0  0  0  0  0  0  0  0  0  0  0
    3.2155    1.4975    0.0000 C   0  0  0  0  0  0  0  0  0  0  0  0
    4.7715   -0.5831    0.0000 C   0  0  0  0  0  0  0  0  0  0  0  0
    1.1677   -3.2781    0.0000 C   0  0  0  0  0  0  0  0  0  0  0  0
   -5.9026    1.1671    0.0000 C   0  0  0  0  0  0  0  0  0  0  0  0
   -4.3467   -0.9135    0.0000 C   0  0  0  0  0  0  0  0  0  0  0  0
    4.4168    2.3959    0.0000 C   0  0  0  0  0  0  0  0  0  0  0  0
    5.9727    0.3152    0.0000 C   0  0  0  0  0  0  0  0  0  0  0  0
    5.7954    1.8047    0.0000 C   0  0  0  0  0  0  0  0  0  0  0  0
    0.2219   -1.6777    0.0000 H   0  0  0  0  0  0  0  0  0  0  0  0
    1.2587    0.4663    0.0000 H   0  0  0  0  0  0  0  0  0  0  0  0
   -2.3899    0.1177    0.0000 H   0  0  0  0  0  0  0  0  0  0  0  0
   -1.6969    1.7337    0.0000 H   0  0  0  0  0  0  0  0  0  0  0  0
   -0.7398    2.1163    0.0000 H   0  0  0  0  0  0  0  0  0  0  0  0
    0.8761    1.4234    0.0000 H   0  0  0  0  0  0  0  0  0  0  0  0
    0.6167    3.0492    0.0000 H   0  0  0  0  0  0  0  0  0  0  0  0
   -2.0072   -0.8394    0.0000 H   0  0  0  0  0  0  0  0  0  0  0  0
    0.2219   -1.6777    0.0000 H   0  0  0  0  0  0  0  0  0  0  0  0
   -1.7479   -2.4652    0.0000 H   0  0  0  0  0  0  0  0  0  0  0  0
   -3.5001    2.9638    0.0000 H   0  0  0  0  0  0  0  0  0  0  0  0
    1.8369    2.0887    0.0000 H   0  0  0  0  0  0  0  0  0  0  0  0
    4.9488   -2.0726    0.0000 H   0  0  0  0  0  0  0  0  0  0  0  0
    2.0661   -4.4793    0.0000 H   0  0  0  0  0  0  0  0  0  0  0  0
    0.2694   -2.0768    0.0000 H   0  0  0  0  0  0  0  0  0  0  0  0
   -0.0335   -4.1764    0.0000 H   0  0  0  0  0  0  0  0  0  0  0  0
   -5.8467   -0.9080    0.0000 H   0  0  0  0  0  0  0  0  0  0  0  0
   -5.8034   -1.2711    0.0000 H   0  0  0  0  0  0  0  0  0  0  0  0
   -4.1693   -2.4030    0.0000 H   0  0  0  0  0  0  0  0  0  0  0  0
   -6.4938   -0.2115    0.0000 H   0  0  0  0  0  0  0  0  0  0  0  0
   -5.3115    2.5457    0.0000 H   0  0  0  0  0  0  0  0  0  0  0  0
   -7.2812    1.7583    0.0000 H   0  0  0  0  0  0  0  0  0  0  0  0
    4.2394    3.8853    0.0000 H   0  0  0  0  0  0  0  0  0  0  0  0
    7.3514   -0.2759    0.0000 H   0  0  0  0  0  0  0  0  0  0  0  0
    6.9966    2.7030    0.0000 H   0  0  0  0  0  0  0  0  0  0  0  0
  1 10  2  0
  2  4  1  0
  2  9  1  0
  2 10  1  0
  3  4  1  0
  3  5  1  0
  3  6  1  0
  3  7  1  0
  4 20  1  0
  4 21  1  0
  5  8  1  0
  5 22  1  0
  5 23  1  0
  6 24  1  0
  6 25  1  0
  6 26  1  0
  7 27  1  0
  7 28  1  0
  7 29  1  0
  8 11  2  0
  8 30  1  0
  9 12  2  0
  9 13  1  0
 10 14  1  0
 11 15  1  0
 11 16  1  0
 12 17  1  0
 12 31  1  0
 13 18  2  0
 13 32  1  0
 14 33  1  0
 14 34  1  0
 14 35  1  0
 15 39  1  0
 15 40  1  0
 15 41  1  0
 16 36  1  0
 16 37  1  0
 16 38  1  0
 17 19  2  0
 17 42  1  0
 18 19  1  0
 18 43  1  0
 19 44  1  0
M  STY  8   1 DAT   2 DAT   3 DAT   4 DAT   5 DAT   6 DAT   7 DAT   8 DAT
M  STY  8   9 DAT  10 DAT  11 DAT  12 DAT  13 DAT  14 DAT  15 DAT  16 DAT
M  STY  8  17 DAT  18 DAT  19 DAT  20 DAT  21 DAT  22 DAT  23 DAT  24 DAT
M  STY  8  25 DAT  26 DAT  27 DAT  28 DAT  29 DAT  30 DAT  31 DAT  32 DAT
M  STY  8  33 DAT  34 DAT  35 DAT  36 DAT  37 DAT  38 DAT  39 DAT  40 DAT
M  STY  4  41 DAT  42 DAT  43 DAT  44 DAT
M  SAL   1  1   1
M  SED   1 [#8&h0]
M  SAL   2  1   2
M  SED   2 [#7&h0]
M  SAL   3  1   3
M  SED   3 [#6&h0]
M  SAL   4  1   4
M  SED   4 [#6&h0]
M  SAL   5  1   5
M  SED   5 [#6&h0]
M  SAL   6  1   6
M  SED   6 [#6&h0]
M  SAL   7  1   7
M  SED   7 [#6&h0]
M  SAL   8  1   8
M  SED   8 [#6&h0]
M  SAL   9  1   9
M  SED   9 [#6&h0]
M  SAL  10  1  10
M  SED  10 [#6&h0]
M  SAL  11  1  11
M  SED  11 [#6&h0]
M  SAL  12  1  12
M  SED  12 [#6&h0]
M  SAL  13  1  13
M  SED  13 [#6&h0]
M  SAL  14  1  14
M  SED  14 [#6&h0]
M  SAL  15  1  15
M  SED  15 [#6&h0]
M  SAL  16  1  16
M  SED  16 [#6&h0]
M  SAL  17  1  17
M  SED  17 [#6&h0]
M  SAL  18  1  18
M  SED  18 [#6&h0]
M  SAL  19  1  19
M  SED  19 [#6&h0]
M  SAL  20  1  20
M  SED  20 [#1&h0]
M  SAL  21  1  21
M  SED  21 [#1&h0]
M  SAL  22  1  22
M  SED  22 [#1&h0]
M  SAL  23  1  23
M  SED  23 [#1&h0]
M  SAL  24  1  24
M  SED  24 [#1&h0]
M  SAL  25  1  25
M  SED  25 [#1&h0]
M  SAL  26  1  26
M  SED  26 [#1&h0]
M  SAL  27  1  27
M  SED  27 [#1&h0]
M  SAL  28  1  28
M  SED  28 [#1&h0]
M  SAL  29  1  29
M  SED  29 [#1&h0]
M  SAL  30  1  30
M  SED  30 [#1&h0]
M  SAL  31  1  31
M  SED  31 [#1&h0]
M  SAL  32  1  32
M  SED  32 [#1&h0]
M  SAL  33  1  33
M  SED  33 [#1&h0]
M  SAL  34  1  34
M  SED  34 [#1&h0]
M  SAL  35  1  35
M  SED  35 [#1&h0]
M  SAL  36  1  36
M  SED  36 [#1&h0]
M  SAL  37  1  37
M  SED  37 [#1&h0]
M  SAL  38  1  38
M  SED  38 [#1&h0]
M  SAL  39  1  39
M  SED  39 [#1&h0]
M  SAL  40  1  40
M  SED  40 [#1&h0]
M  SAL  41  1  41
M  SED  41 [#1&h0]
M  SAL  42  1  42
M  SED  42 [#1&h0]
M  SAL  43  1  43
M  SED  43 [#1&h0]
M  SAL  44  1  44
M  SED  44 [#1&h0]
M  END
>  <Activity>  (134) 
0.01

>  <Mapped(file=2032.csv.activities,property=Cached(PUBCHEM_COMPOUND_CID))>  (134) 
100

>  <MatchIndices>  (134) 
186 

>  <PUBCHEM_ATOM_DEF_STEREO_COUNT>  (134) 
0

>  <PUBCHEM_ATOM_UDEF_STEREO_COUNT>  (134) 
0

>  <PUBCHEM_BONDANNOTATIONS>  (134) 
12  17  8
13  18  8
17  19  8
18  19  8
9  12  8
9  13  8

>  <PUBCHEM_BOND_DEF_STEREO_COUNT>  (134) 
0

>  <PUBCHEM_BOND_UDEF_STEREO_COUNT>  (134) 
0

>  <PUBCHEM_CACTVS_COMPLEXITY>  (134) 
320

>  <PUBCHEM_CACTVS_HBOND_ACCEPTOR>  (134) 
1

>  <PUBCHEM_CACTVS_HBOND_DONOR>  (134) 
0

>  <PUBCHEM_CACTVS_ROTATABLE_BOND>  (134) 
5

>  <PUBCHEM_CACTVS_SUBSKEYS>  (134) 
AAADceB6IAAAAAAAAAAAAAAAAAAAAAAAAAAwAAAAAAAAAAABAAAAHgAAAAAADgjBkAQywIMAAACIAiVSUACCAAAhAgAIiAAIZIgIICLAkZGEIAhghgDIyAcQAAAJAAAAAAAAAAAAAAAAAAAAAAAAAAAAAA==

>  <PUBCHEM_CACTVS_TAUTO_COUNT>  (134) 
1

>  <PUBCHEM_CACTVS_TPSA>  (134) 
20.3

>  <PUBCHEM_COMPONENT_COUNT>  (134) 
1

>  <PUBCHEM_COMPOUND_CANONICALIZED>  (134) 
1

>  <PUBCHEM_COMPOUND_CID>  (134) 
2053713

>  <PUBCHEM_COORDINATE_TYPE>  (134) 
1
5
255

>  <PUBCHEM_EXACT_MASS>  (134) 
259.193614

>  <PUBCHEM_HEAVY_ATOM_COUNT>  (134) 
19

>  <PUBCHEM_ISOTOPIC_ATOM_COUNT>  (134) 
0

>  <PUBCHEM_IUPAC_CAS_NAME>  (134) 
N-phenyl-N-(2,2,5-trimethylhex-4-enyl)acetamide

>  <PUBCHEM_IUPAC_INCHI>  (134) 
InChI=1S/C17H25NO/c1-14(2)11-12-17(4,5)13-18(15(3)19)16-9-7-6-8-10-16/h6-11H,12-13H2,1-5H3

>  <PUBCHEM_IUPAC_INCHIKEY>  (134) 
PZGQCQYATORQRP-UHFFFAOYSA-N

>  <PUBCHEM_IUPAC_NAME>  (134) 
N-phenyl-N-(2,2,5-trimethylhex-4-enyl)acetamide

>  <PUBCHEM_IUPAC_OPENEYE_NAME>  (134) 
N-phenyl-N-(2,2,5-trimethylhex-4-enyl)acetamide

>  <PUBCHEM_IUPAC_SYSTEMATIC_NAME>  (134) 
N-phenyl-N-(2,2,5-trimethylhex-4-enyl)ethanamide

>  <PUBCHEM_IUPAC_TRADITIONAL_NAME>  (134) 
N-phenyl-N-(2,2,5-trimethylhex-4-enyl)acetamide

>  <PUBCHEM_MOLECULAR_FORMULA>  (134) 
C17H25NO

>  <PUBCHEM_MOLECULAR_WEIGHT>  (134) 
259.3865

>  <PUBCHEM_MONOISOTOPIC_WEIGHT>  (134) 
259.193614

>  <PUBCHEM_OPENEYE_CAN_SMILES>  (134) 
CC(=CCC(C)(C)CN(C1=CC=CC=C1)C(=O)C)C

>  <PUBCHEM_OPENEYE_ISO_SMILES>  (134) 
CC(=CCC(C)(C)CN(C1=CC=CC=C1)C(=O)C)C

>  <PUBCHEM_TOTAL_CHARGE>  (134) 
0

>  <PUBCHEM_XLOGP3_AA>  (134) 
4.4

$$$$
Largest isolated from Written by BCL::WriteToMDL,2569114
     RDKit          2D

 49 50  0 49  0  0  0  0  0  0999 V2000
   -3.0330    3.6641    0.0000 S   0  0  0  0  0  0  0  0  0  0  0  0
    0.7756    4.7798    0.0000 O   0  0  0  0  0  0  0  0  0  0  0  0
   -7.6537    1.2872    0.0000 O   0  0  0  0  0  0  0  0  0  0  0  0
    2.3724    0.4752    0.0000 N   0  0  0  0  0  0  0  0  0  0  0  0
   -3.1590    1.0691    0.0000 N   0  0  0  0  0  0  0  0  0  0  0  0
   -5.3433    2.4757    0.0000 N   0  0  0  0  0  0  0  0  0  0  0  0
    2.1320    1.9558    0.0000 C   0  0  0  0  0  0  0  0  0  0  0  0
    3.7115   -0.2006    0.0000 C   0  0  0  0  0  0  0  0  0  0  0  0
    1.0385   -0.2109    0.0000 C   0  0  0  0  0  0  0  0  0  0  0  0
    0.6496    2.1848    0.0000 C   0  0  0  0  0  0  0  0  0  0  0  0
   -0.0262    0.8456    0.0000 C   0  0  0  0  0  0  0  0  0  0  0  0
    5.0506   -0.8765    0.0000 C   0  0  0  0  0  0  0  0  0  0  0  0
    3.1886    3.0206    0.0000 C   0  0  0  0  0  0  0  0  0  0  0  0
    0.8096   -1.6934    0.0000 C   0  0  0  0  0  0  0  0  0  0  0  0
   -0.0365    3.5186    0.0000 C   0  0  0  0  0  0  0  0  0  0  0  0
    6.3898   -1.5523    0.0000 C   0  0  0  0  0  0  0  0  0  0  0  0
   -1.5348    3.5914    0.0000 C   0  0  0  0  0  0  0  0  0  0  0  0
   -3.2849   -1.5260    0.0000 C   0  0  0  0  0  0  0  0  0  0  0  0
   -3.9711   -0.1921    0.0000 C   0  0  0  0  0  0  0  0  0  0  0  0
   -2.5988   -2.8598    0.0000 C   0  0  0  0  0  0  0  0  0  0  0  0
   -3.8451    2.4029    0.0000 C   0  0  0  0  0  0  0  0  0  0  0  0
   -5.4693   -0.1194    0.0000 C   0  0  0  0  0  0  0  0  0  0  0  0
   -1.9127   -4.1937    0.0000 C   0  0  0  0  0  0  0  0  0  0  0  0
   -6.1554    1.2145    0.0000 C   0  0  0  0  0  0  0  0  0  0  0  0
    3.2040   -1.6122    0.0000 H   0  0  0  0  0  0  0  0  0  0  0  0
    4.5455    1.0461    0.0000 H   0  0  0  0  0  0  0  0  0  0  0  0
   -1.1189    0.8033    0.0000 H   0  0  0  0  0  0  0  0  0  0  0  0
    5.7265    0.4627    0.0000 H   0  0  0  0  0  0  0  0  0  0  0  0
    4.3748   -2.2156    0.0000 H   0  0  0  0  0  0  0  0  0  0  0  0
    2.1239    4.0771    0.0000 H   0  0  0  0  0  0  0  0  0  0  0  0
    4.3742    2.1017    0.0000 H   0  0  0  0  0  0  0  0  0  0  0  0
    4.2452    4.0853    0.0000 H   0  0  0  0  0  0  0  0  0  0  0  0
    2.2530   -2.1013    0.0000 H   0  0  0  0  0  0  0  0  0  0  0  0
   -0.6728   -1.4644    0.0000 H   0  0  0  0  0  0  0  0  0  0  0  0
    0.5806   -3.1758    0.0000 H   0  0  0  0  0  0  0  0  0  0  0  0
    5.7139   -2.8914    0.0000 H   0  0  0  0  0  0  0  0  0  0  0  0
    7.0656   -0.2132    0.0000 H   0  0  0  0  0  0  0  0  0  0  0  0
    7.7289   -2.2281    0.0000 H   0  0  0  0  0  0  0  0  0  0  0  0
   -1.4620    5.0896    0.0000 H   0  0  0  0  0  0  0  0  0  0  0  0
   -1.6075    2.0931    0.0000 H   0  0  0  0  0  0  0  0  0  0  0  0
   -1.9511   -0.8398    0.0000 H   0  0  0  0  0  0  0  0  0  0  0  0
   -4.6188   -2.2121    0.0000 H   0  0  0  0  0  0  0  0  0  0  0  0
   -3.9327   -3.5460    0.0000 H   0  0  0  0  0  0  0  0  0  0  0  0
   -1.2649   -2.1737    0.0000 H   0  0  0  0  0  0  0  0  0  0  0  0
   -2.0684    1.1496    0.0000 H   0  0  0  0  0  0  0  0  0  0  0  0
   -6.2814   -1.3805    0.0000 H   0  0  0  0  0  0  0  0  0  0  0  0
   -0.5788   -3.5076    0.0000 H   0  0  0  0  0  0  0  0  0  0  0  0
   -3.2465   -4.8798    0.0000 H   0  0  0  0  0  0  0  0  0  0  0  0
   -1.2265   -5.5276    0.0000 H   0  0  0  0  0  0  0  0  0  0  0  0
  1 17  1  0
  1 21  1  0
  2 15  2  0
  3 24  2  0
  4  7  1  0
  4  8  1  0
  4  9  1  0
  5 19  1  0
  5 21  1  0
  5 45  1  0
  6 21  2  0
  6 24  1  0
  7 10  2  0
  7 13  1  0
  8 12  1  0
  8 25  1  0
  8 26  1  0
  9 11  2  0
  9 14  1  0
 10 11  1  0
 10 15  1  0
 11 27  1  0
 12 16  1  0
 12 28  1  0
 12 29  1  0
 13 30  1  0
 13 31  1  0
 13 32  1  0
 14 33  1  0
 14 34  1  0
 14 35  1  0
 15 17  1  0
 16 36  1  0
 16 37  1  0
 16 38  1  0
 17 39  1  0
 17 40  1  0
 18 19  1  0
 18 20  1  0
 18 41  1  0
 18 42  1  0
 19 22  2  0
 20 23  1  0
 20 43  1  0
 20 44  1  0
 22 24  1  0
 22 46  1  0
 23 47  1  0
 23 48  1  0
 23 49  1  0
M  STY  8   1 DAT   2 DAT   3 DAT   4 DAT   5 DAT   6 DAT   7 DAT   8 DAT
M  STY  8   9 DAT  10 DAT  11 DAT  12 DAT  13 DAT  14 DAT  15 DAT  16 DAT
M  STY  8  17 DAT  18 DAT  19 DAT  20 DAT  21 DAT  22 DAT  23 DAT  24 DAT
M  STY  8  25 DAT  26 DAT  27 DAT  28 DAT  29 DAT  30 DAT  31 DAT  32 DAT
M  STY  8  33 DAT  34 DAT  35 DAT  36 DAT  37 DAT  38 DAT  39 DAT  40 DAT
M  STY  8  41 DAT  42 DAT  43 DAT  44 DAT  45 DAT  46 DAT  47 DAT  48 DAT
M  STY  1  49 DAT
M  SAL   1  1   1
M  SED   1 [#16&h0]
M  SAL   2  1   2
M  SED   2 [#8&h0]
M  SAL   3  1   3
M  SED   3 [#8&h0]
M  SAL   4  1   4
M  SED   4 [#7&h0]
M  SAL   5  1   5
M  SED   5 [#7&h0]
M  SAL   6  1   6
M  SED   6 [#7&h0]
M  SAL   7  1   7
M  SED   7 [#6&h0]
M  SAL   8  1   8
M  SED   8 [#6&h0]
M  SAL   9  1   9
M  SED   9 [#6&h0]
M  SAL  10  1  10
M  SED  10 [#6&h0]
M  SAL  11  1  11
M  SED  11 [#6&h0]
M  SAL  12  1  12
M  SED  12 [#6&h0]
M  SAL  13  1  13
M  SED  13 [#6&h0]
M  SAL  14  1  14
M  SED  14 [#6&h0]
M  SAL  15  1  15
M  SED  15 [#6&h0]
M  SAL  16  1  16
M  SED  16 [#6&h0]
M  SAL  17  1  17
M  SED  17 [#6&h0]
M  SAL  18  1  18
M  SED  18 [#6&h0]
M  SAL  19  1  19
M  SED  19 [#6&h0]
M  SAL  20  1  20
M  SED  20 [#6&h0]
M  SAL  21  1  21
M  SED  21 [#6&h0]
M  SAL  22  1  22
M  SED  22 [#6&h0]
M  SAL  23  1  23
M  SED  23 [#6&h0]
M  SAL  24  1  24
M  SED  24 [#6&h0]
M  SAL  25  1  25
M  SED  25 [#1&h0]
M  SAL  26  1  26
M  SED  26 [#1&h0]
M  SAL  27  1  27
M  SED  27 [#1&h0]
M  SAL  28  1  28
M  SED  28 [#1&h0]
M  SAL  29  1  29
M  SED  29 [#1&h0]
M  SAL  30  1  30
M  SED  30 [#1&h0]
M  SAL  31  1  31
M  SED  31 [#1&h0]
M  SAL  32  1  32
M  SED  32 [#1&h0]
M  SAL  33  1  33
M  SED  33 [#1&h0]
M  SAL  34  1  34
M  SED  34 [#1&h0]
M  SAL  35  1  35
M  SED  35 [#1&h0]
M  SAL  36  1  36
M  SED  36 [#1&h0]
M  SAL  37  1  37
M  SED  37 [#1&h0]
M  SAL  38  1  38
M  SED  38 [#1&h0]
M  SAL  39  1  39
M  SED  39 [#1&h0]
M  SAL  40  1  40
M  SED  40 [#1&h0]
M  SAL  41  1  41
M  SED  41 [#1&h0]
M  SAL  42  1  42
M  SED  42 [#1&h0]
M  SAL  43  1  43
M  SED  43 [#1&h0]
M  SAL  44  1  44
M  SED  44 [#1&h0]
M  SAL  45  1  45
M  SED  45 [#1&h0]
M  SAL  46  1  46
M  SED  46 [#1&h0]
M  SAL  47  1  47
M  SED  47 [#1&h0]
M  SAL  48  1  48
M  SED  48 [#1&h0]
M  SAL  49  1  49
M  SED  49 [#1&h0]
M  END
>  <Activity>  (135) 
0.01

>  <Mapped(file=2032.csv.activities,property=Cached(PUBCHEM_COMPOUND_CID))>  (135) 
100

>  <MatchIndices>  (135) 
120 

>  <PUBCHEM_ATOM_DEF_STEREO_COUNT>  (135) 
0

>  <PUBCHEM_ATOM_UDEF_STEREO_COUNT>  (135) 
0

>  <PUBCHEM_BONDANNOTATIONS>  (135) 
10  11  8
19  22  8
22  24  8
4  7  8
4  9  8
5  19  8
5  21  8
6  21  8
6  24  8
7  10  8
9  11  8

>  <PUBCHEM_BOND_DEF_STEREO_COUNT>  (135) 
0

>  <PUBCHEM_BOND_UDEF_STEREO_COUNT>  (135) 
0

>  <PUBCHEM_CACTVS_COMPLEXITY>  (135) 
544

>  <PUBCHEM_CACTVS_HBOND_ACCEPTOR>  (135) 
3

>  <PUBCHEM_CACTVS_HBOND_DONOR>  (135) 
1

>  <PUBCHEM_CACTVS_ROTATABLE_BOND>  (135) 
8

>  <PUBCHEM_CACTVS_SUBSKEYS>  (135) 
AAADceB7MABAAAAAAAAAAAAAAAAAAWAAAAAgAAAAAAAAAAABgAAAHgQQAAAADAzF3gSzgJPMEAioA6VydACCkCFlAjAB2CE4ZNgIIPrgnZGEAYhgkADIycccAAAOAAAAAAAAAAAAAAAAAAAAAAAAAAAAAA==

>  <PUBCHEM_CACTVS_TAUTO_COUNT>  (135) 
6

>  <PUBCHEM_CACTVS_TPSA>  (135) 
88.8

>  <PUBCHEM_COMPONENT_COUNT>  (135) 
1

>  <PUBCHEM_COMPOUND_CANONICALIZED>  (135) 
1

>  <PUBCHEM_COMPOUND_CID>  (135) 
2569114

>  <PUBCHEM_COORDINATE_TYPE>  (135) 
1
5
255

>  <PUBCHEM_EXACT_MASS>  (135) 
347.166748

>  <PUBCHEM_HEAVY_ATOM_COUNT>  (135) 
24

>  <PUBCHEM_ISOTOPIC_ATOM_COUNT>  (135) 
0

>  <PUBCHEM_IUPAC_CAS_NAME>  (135) 
2-[[2-(2,5-dimethyl-1-propyl-3-pyrrolyl)-2-oxoethyl]thio]-6-propyl-1H-pyrimidin-4-one

>  <PUBCHEM_IUPAC_INCHI>  (135) 
InChI=1S/C18H25N3O2S/c1-5-7-14-10-17(23)20-18(19-14)24-11-16(22)15-9-12(3)21(8-6-2)13(15)4/h9-10H,5-8,11H2,1-4H3,(H,19,20,23)

>  <PUBCHEM_IUPAC_INCHIKEY>  (135) 
QLSNNWADLFXIGD-UHFFFAOYSA-N

>  <PUBCHEM_IUPAC_NAME>  (135) 
2-[2-(2,5-dimethyl-1-propylpyrrol-3-yl)-2-oxoethyl]sulfanyl-6-propyl-1H-pyrimidin-4-one

>  <PUBCHEM_IUPAC_OPENEYE_NAME>  (135) 
2-[2-(2,5-dimethyl-1-propyl-pyrrol-3-yl)-2-oxo-ethyl]sulfanyl-6-propyl-1H-pyrimidin-4-one

>  <PUBCHEM_IUPAC_SYSTEMATIC_NAME>  (135) 
2-[2-(2,5-dimethyl-1-propyl-pyrrol-3-yl)-2-oxidanylidene-ethyl]sulfanyl-6-propyl-1H-pyrimidin-4-one

>  <PUBCHEM_IUPAC_TRADITIONAL_NAME>  (135) 
2-[[2-(2,5-dimethyl-1-propyl-pyrrol-3-yl)-2-keto-ethyl]thio]-6-propyl-1H-pyrimidin-4-one

>  <PUBCHEM_MOLECULAR_FORMULA>  (135) 
C18H25N3O2S

>  <PUBCHEM_MOLECULAR_WEIGHT>  (135) 
347.475

>  <PUBCHEM_MONOISOTOPIC_WEIGHT>  (135) 
347.166748

>  <PUBCHEM_OPENEYE_CAN_SMILES>  (135) 
CCCC1=CC(=O)N=C(N1)SCC(=O)C2=C(N(C(=C2)C)CCC)C

>  <PUBCHEM_OPENEYE_ISO_SMILES>  (135) 
CCCC1=CC(=O)N=C(N1)SCC(=O)C2=C(N(C(=C2)C)CCC)C

>  <PUBCHEM_TOTAL_CHARGE>  (135) 
0

>  <PUBCHEM_XLOGP3_AA>  (135) 
3.2

$$$$
Largest isolated from Written by BCL::WriteToMDL,16195106
     RDKit          2D

 45 47  0 45  0  0  0  0  0  0999 V2000
    5.1333   -2.5981    0.0000 F   0  0  0  0  0  0  0  0  0  0  0  0
   -0.8667   -0.0000    0.0000 N   0  0  0  0  0  0  0  0  0  0  0  0
    2.1333   -0.0000    0.0000 N   0  0  0  0  0  0  0  0  0  0  0  0
   -0.1167   -1.2990    0.0000 C   0  0  0  0  0  0  0  0  0  0  0  0
   -0.1167    1.2990    0.0000 C   0  0  0  0  0  0  0  0  0  0  0  0
    1.3833   -1.2990    0.0000 C   0  0  0  0  0  0  0  0  0  0  0  0
    1.3833    1.2990    0.0000 C   0  0  0  0  0  0  0  0  0  0  0  0
   -2.3667    0.0000    0.0000 C   0  0  0  0  0  0  0  0  0  0  0  0
    3.6333    0.0000    0.0000 C   0  0  0  0  0  0  0  0  0  0  0  0
   -3.8667    0.0000    0.0000 C   0  0  0  0  0  0  0  0  0  0  0  0
    5.1333    0.0000    0.0000 C   0  0  0  0  0  0  0  0  0  0  0  0
   -4.6167    1.2990    0.0000 C   0  0  0  0  0  0  0  0  0  0  0  0
   -4.6167   -1.2990    0.0000 C   0  0  0  0  0  0  0  0  0  0  0  0
    5.8833   -1.2990    0.0000 C   0  0  0  0  0  0  0  0  0  0  0  0
    5.8833    1.2990    0.0000 C   0  0  0  0  0  0  0  0  0  0  0  0
   -6.1167    1.2990    0.0000 C   0  0  0  0  0  0  0  0  0  0  0  0
   -6.1167   -1.2990    0.0000 C   0  0  0  0  0  0  0  0  0  0  0  0
   -6.8667    0.0000    0.0000 C   0  0  0  0  0  0  0  0  0  0  0  0
    7.3833   -1.2990    0.0000 C   0  0  0  0  0  0  0  0  0  0  0  0
    7.3833    1.2990    0.0000 C   0  0  0  0  0  0  0  0  0  0  0  0
    8.1333    0.0000    0.0000 C   0  0  0  0  0  0  0  0  0  0  0  0
   -8.3667    0.0000    0.0000 C   0  0  0  0  0  0  0  0  0  0  0  0
   -1.4532    1.9801    0.0000 H   0  0  0  0  0  0  0  0  0  0  0  0
    0.1438    2.7762    0.0000 H   0  0  0  0  0  0  0  0  0  0  0  0
    0.1438   -2.7762    0.0000 H   0  0  0  0  0  0  0  0  0  0  0  0
   -1.4532   -1.9801    0.0000 H   0  0  0  0  0  0  0  0  0  0  0  0
    1.1229    2.7762    0.0000 H   0  0  0  0  0  0  0  0  0  0  0  0
    2.7198    1.9801    0.0000 H   0  0  0  0  0  0  0  0  0  0  0  0
    2.7198   -1.9801    0.0000 H   0  0  0  0  0  0  0  0  0  0  0  0
    1.1229   -2.7762    0.0000 H   0  0  0  0  0  0  0  0  0  0  0  0
   -2.5495    1.4888    0.0000 H   0  0  0  0  0  0  0  0  0  0  0  0
   -2.5495   -1.4888    0.0000 H   0  0  0  0  0  0  0  0  0  0  0  0
    3.8162   -1.4888    0.0000 H   0  0  0  0  0  0  0  0  0  0  0  0
    3.8162    1.4888    0.0000 H   0  0  0  0  0  0  0  0  0  0  0  0
   -3.8667    2.5981    0.0000 H   0  0  0  0  0  0  0  0  0  0  0  0
   -3.8667   -2.5981    0.0000 H   0  0  0  0  0  0  0  0  0  0  0  0
    5.1333    2.5981    0.0000 H   0  0  0  0  0  0  0  0  0  0  0  0
   -6.8667    2.5981    0.0000 H   0  0  0  0  0  0  0  0  0  0  0  0
   -6.8667   -2.5981    0.0000 H   0  0  0  0  0  0  0  0  0  0  0  0
    8.1333   -2.5981    0.0000 H   0  0  0  0  0  0  0  0  0  0  0  0
    8.1333    2.5981    0.0000 H   0  0  0  0  0  0  0  0  0  0  0  0
    9.6333    0.0000    0.0000 H   0  0  0  0  0  0  0  0  0  0  0  0
   -8.3667    1.5000    0.0000 H   0  0  0  0  0  0  0  0  0  0  0  0
   -8.3667   -1.5000    0.0000 H   0  0  0  0  0  0  0  0  0  0  0  0
   -9.8667   -0.0000    0.0000 H   0  0  0  0  0  0  0  0  0  0  0  0
  1 14  1  0
  2  4  1  0
  2  5  1  0
  2  8  1  0
  3  6  1  0
  3  7  1  0
  3  9  1  0
  4  6  1  0
  4 25  1  0
  4 26  1  0
  5  7  1  0
  5 23  1  0
  5 24  1  0
  6 29  1  0
  6 30  1  0
  7 27  1  0
  7 28  1  0
  8 10  1  0
  8 31  1  0
  8 32  1  0
  9 11  1  0
  9 33  1  0
  9 34  1  0
 10 12  2  0
 10 13  1  0
 11 14  2  0
 11 15  1  0
 12 16  1  0
 12 35  1  0
 13 17  2  0
 13 36  1  0
 14 19  1  0
 15 20  2  0
 15 37  1  0
 16 18  2  0
 16 38  1  0
 17 18  1  0
 17 39  1  0
 18 22  1  0
 19 21  2  0
 19 40  1  0
 20 21  1  0
 20 41  1  0
 21 42  1  0
 22 43  1  0
 22 44  1  0
 22 45  1  0
M  STY  8   1 DAT   2 DAT   3 DAT   4 DAT   5 DAT   6 DAT   7 DAT   8 DAT
M  STY  8   9 DAT  10 DAT  11 DAT  12 DAT  13 DAT  14 DAT  15 DAT  16 DAT
M  STY  8  17 DAT  18 DAT  19 DAT  20 DAT  21 DAT  22 DAT  23 DAT  24 DAT
M  STY  8  25 DAT  26 DAT  27 DAT  28 DAT  29 DAT  30 DAT  31 DAT  32 DAT
M  STY  8  33 DAT  34 DAT  35 DAT  36 DAT  37 DAT  38 DAT  39 DAT  40 DAT
M  STY  5  41 DAT  42 DAT  43 DAT  44 DAT  45 DAT
M  SAL   1  1   1
M  SED   1 [#9&h0]
M  SAL   2  1   2
M  SED   2 [#7&h0]
M  SAL   3  1   3
M  SED   3 [#7&h0]
M  SAL   4  1   4
M  SED   4 [#6&h0]
M  SAL   5  1   5
M  SED   5 [#6&h0]
M  SAL   6  1   6
M  SED   6 [#6&h0]
M  SAL   7  1   7
M  SED   7 [#6&h0]
M  SAL   8  1   8
M  SED   8 [#6&h0]
M  SAL   9  1   9
M  SED   9 [#6&h0]
M  SAL  10  1  10
M  SED  10 [#6&h0]
M  SAL  11  1  11
M  SED  11 [#6&h0]
M  SAL  12  1  12
M  SED  12 [#6&h0]
M  SAL  13  1  13
M  SED  13 [#6&h0]
M  SAL  14  1  14
M  SED  14 [#6&h0]
M  SAL  15  1  15
M  SED  15 [#6&h0]
M  SAL  16  1  16
M  SED  16 [#6&h0]
M  SAL  17  1  17
M  SED  17 [#6&h0]
M  SAL  18  1  18
M  SED  18 [#6&h0]
M  SAL  19  1  19
M  SED  19 [#6&h0]
M  SAL  20  1  20
M  SED  20 [#6&h0]
M  SAL  21  1  21
M  SED  21 [#6&h0]
M  SAL  22  1  22
M  SED  22 [#6&h0]
M  SAL  23  1  23
M  SED  23 [#1&h0]
M  SAL  24  1  24
M  SED  24 [#1&h0]
M  SAL  25  1  25
M  SED  25 [#1&h0]
M  SAL  26  1  26
M  SED  26 [#1&h0]
M  SAL  27  1  27
M  SED  27 [#1&h0]
M  SAL  28  1  28
M  SED  28 [#1&h0]
M  SAL  29  1  29
M  SED  29 [#1&h0]
M  SAL  30  1  30
M  SED  30 [#1&h0]
M  SAL  31  1  31
M  SED  31 [#1&h0]
M  SAL  32  1  32
M  SED  32 [#1&h0]
M  SAL  33  1  33
M  SED  33 [#1&h0]
M  SAL  34  1  34
M  SED  34 [#1&h0]
M  SAL  35  1  35
M  SED  35 [#1&h0]
M  SAL  36  1  36
M  SED  36 [#1&h0]
M  SAL  37  1  37
M  SED  37 [#1&h0]
M  SAL  38  1  38
M  SED  38 [#1&h0]
M  SAL  39  1  39
M  SED  39 [#1&h0]
M  SAL  40  1  40
M  SED  40 [#1&h0]
M  SAL  41  1  41
M  SED  41 [#1&h0]
M  SAL  42  1  42
M  SED  42 [#1&h0]
M  SAL  43  1  43
M  SED  43 [#1&h0]
M  SAL  44  1  44
M  SED  44 [#1&h0]
M  SAL  45  1  45
M  SED  45 [#1&h0]
M  END
>  <Activity>  (136) 
0.01

>  <Mapped(file=2032.csv.activities,property=Cached(PUBCHEM_COMPOUND_CID))>  (136) 
100

>  <MatchIndices>  (136) 
37 

>  <PUBCHEM_ATOM_DEF_STEREO_COUNT>  (136) 
0

>  <PUBCHEM_ATOM_UDEF_STEREO_COUNT>  (136) 
0

>  <PUBCHEM_BONDANNOTATIONS>  (136) 
14  16  8
14  17  8
15  18  8
15  19  8
16  20  8
17  21  8
18  23  8
19  24  8
20  22  8
21  22  8
23  25  8
24  25  8

>  <PUBCHEM_BOND_DEF_STEREO_COUNT>  (136) 
0

>  <PUBCHEM_BOND_UDEF_STEREO_COUNT>  (136) 
0

>  <PUBCHEM_CACTVS_COMPLEXITY>  (136) 
391

>  <PUBCHEM_CACTVS_HBOND_ACCEPTOR>  (136) 
7

>  <PUBCHEM_CACTVS_HBOND_DONOR>  (136) 
2

>  <PUBCHEM_CACTVS_ROTATABLE_BOND>  (136) 
5

>  <PUBCHEM_CACTVS_SUBSKEYS>  (136) 
AAADceB7OQAAAAAAAAAAAAAAAAAAAAAAAAA8YIAAAAAAAAABQAAAHwAACAAADADBmAwyCIMAAgCIAiDSCAKCAAAgAAAIiABIBIgJYCKAkRGUIAhggACJiAcQgAAOQAAAAAAAAACAAAAAAAAAAAAAAAAAAA==

>  <PUBCHEM_CACTVS_TAUTO_COUNT>  (136) 
1

>  <PUBCHEM_CACTVS_TPSA>  (136) 
81.1

>  <PUBCHEM_COMPONENT_COUNT>  (136) 
2

>  <PUBCHEM_COMPOUND_CANONICALIZED>  (136) 
1

>  <PUBCHEM_COMPOUND_CID>  (136) 
16195106

>  <PUBCHEM_COORDINATE_TYPE>  (136) 
1
5
255

>  <PUBCHEM_EXACT_MASS>  (136) 
388.179836

>  <PUBCHEM_HEAVY_ATOM_COUNT>  (136) 
28

>  <PUBCHEM_ISOTOPIC_ATOM_COUNT>  (136) 
0

>  <PUBCHEM_IUPAC_CAS_NAME>  (136) 
1-[(2-fluorophenyl)methyl]-4-[(4-methylphenyl)methyl]piperazine; oxalic acid

>  <PUBCHEM_IUPAC_INCHI>  (136) 
InChI=1S/C19H23FN2.C2H2O4/c1-16-6-8-17(9-7-16)14-21-10-12-22(13-11-21)15-18-4-2-3-5-19(18)20;3-1(4)2(5)6/h2-9H,10-15H2,1H3;(H,3,4)(H,5,6)

>  <PUBCHEM_IUPAC_INCHIKEY>  (136) 
FFZYXEFIPGEJCC-UHFFFAOYSA-N

>  <PUBCHEM_IUPAC_NAME>  (136) 
1-[(2-fluorophenyl)methyl]-4-[(4-methylphenyl)methyl]piperazine; oxalic acid

>  <PUBCHEM_IUPAC_OPENEYE_NAME>  (136) 
1-[(2-fluorophenyl)methyl]-4-(p-tolylmethyl)piperazine; oxalic acid

>  <PUBCHEM_IUPAC_SYSTEMATIC_NAME>  (136) 
ethanedioic acid; 1-[(2-fluorophenyl)methyl]-4-[(4-methylphenyl)methyl]piperazine

>  <PUBCHEM_IUPAC_TRADITIONAL_NAME>  (136) 
1-(2-fluorobenzyl)-4-(4-methylbenzyl)piperazine; oxalic acid

>  <PUBCHEM_MOLECULAR_FORMULA>  (136) 
C21H25FN2O4

>  <PUBCHEM_MOLECULAR_WEIGHT>  (136) 
388.432603

>  <PUBCHEM_MONOISOTOPIC_WEIGHT>  (136) 
388.179836

>  <PUBCHEM_OPENEYE_CAN_SMILES>  (136) 
CC1=CC=C(C=C1)CN2CCN(CC2)CC3=CC=CC=C3F.C(=O)(C(=O)O)O

>  <PUBCHEM_OPENEYE_ISO_SMILES>  (136) 
CC1=CC=C(C=C1)CN2CCN(CC2)CC3=CC=CC=C3F.C(=O)(C(=O)O)O

>  <PUBCHEM_TOTAL_CHARGE>  (136) 
0

$$$$
Largest isolated from Written by BCL::WriteToMDL,791864
     RDKit          2D

 44 46  0 44  0  0  0  0  0  0999 V2000
    5.8690   -1.4962    0.0000 O   0  0  0  0  0  0  0  0  0  0  0  0
   -5.0407    1.5416    0.0000 O   0  0  0  0  0  0  0  0  0  0  0  0
   -1.0777    1.3311    0.0000 N   0  0  0  0  0  0  0  0  0  0  0  0
    1.7010    0.2002    0.0000 C   0  0  0  0  0  0  0  0  0  0  0  0
    2.8853    1.1207    0.0000 C   0  0  0  0  0  0  0  0  0  0  0  0
    0.3116    0.7657    0.0000 C   0  0  0  0  0  0  0  0  0  0  0  0
    4.2747    0.5552    0.0000 C   0  0  0  0  0  0  0  0  0  0  0  0
   -2.2621    0.4107    0.0000 C   0  0  0  0  0  0  0  0  0  0  0  0
    1.9059   -1.2857    0.0000 C   0  0  0  0  0  0  0  0  0  0  0  0
    4.4796   -0.9307    0.0000 C   0  0  0  0  0  0  0  0  0  0  0  0
   -3.4465   -0.5098    0.0000 C   0  0  0  0  0  0  0  0  0  0  0  0
    2.6804    2.6066    0.0000 C   0  0  0  0  0  0  0  0  0  0  0  0
    3.2953   -1.8512    0.0000 C   0  0  0  0  0  0  0  0  0  0  0  0
    5.4591    1.4757    0.0000 C   0  0  0  0  0  0  0  0  0  0  0  0
    3.8648    3.5271    0.0000 C   0  0  0  0  0  0  0  0  0  0  0  0
    5.2541    2.9616    0.0000 C   0  0  0  0  0  0  0  0  0  0  0  0
   -4.8358    0.0557    0.0000 C   0  0  0  0  0  0  0  0  0  0  0  0
   -3.2415   -1.9957    0.0000 C   0  0  0  0  0  0  0  0  0  0  0  0
   -6.0202   -0.8648    0.0000 C   0  0  0  0  0  0  0  0  0  0  0  0
   -4.4259   -2.9162    0.0000 C   0  0  0  0  0  0  0  0  0  0  0  0
   -5.8152   -2.3507    0.0000 C   0  0  0  0  0  0  0  0  0  0  0  0
    6.0739   -2.9821    0.0000 C   0  0  0  0  0  0  0  0  0  0  0  0
   -6.4301    2.1071    0.0000 C   0  0  0  0  0  0  0  0  0  0  0  0
    0.8771    2.1550    0.0000 H   0  0  0  0  0  0  0  0  0  0  0  0
   -0.2538   -0.6237    0.0000 H   0  0  0  0  0  0  0  0  0  0  0  0
   -3.1825    1.5951    0.0000 H   0  0  0  0  0  0  0  0  0  0  0  0
   -1.3416   -0.7737    0.0000 H   0  0  0  0  0  0  0  0  0  0  0  0
   -1.2827    2.8171    0.0000 H   0  0  0  0  0  0  0  0  0  0  0  0
    0.7215   -2.2062    0.0000 H   0  0  0  0  0  0  0  0  0  0  0  0
    1.2911    3.1721    0.0000 H   0  0  0  0  0  0  0  0  0  0  0  0
    3.5002   -3.3371    0.0000 H   0  0  0  0  0  0  0  0  0  0  0  0
    6.8484    0.9102    0.0000 H   0  0  0  0  0  0  0  0  0  0  0  0
    3.6598    5.0130    0.0000 H   0  0  0  0  0  0  0  0  0  0  0  0
    6.4385    3.8821    0.0000 H   0  0  0  0  0  0  0  0  0  0  0  0
   -1.8522   -2.5612    0.0000 H   0  0  0  0  0  0  0  0  0  0  0  0
   -7.4095   -0.2993    0.0000 H   0  0  0  0  0  0  0  0  0  0  0  0
   -4.2209   -4.4021    0.0000 H   0  0  0  0  0  0  0  0  0  0  0  0
   -6.9996   -3.2712    0.0000 H   0  0  0  0  0  0  0  0  0  0  0  0
    7.5599   -2.7772    0.0000 H   0  0  0  0  0  0  0  0  0  0  0  0
    4.5880   -3.1871    0.0000 H   0  0  0  0  0  0  0  0  0  0  0  0
    6.2789   -4.4681    0.0000 H   0  0  0  0  0  0  0  0  0  0  0  0
   -5.8646    3.4964    0.0000 H   0  0  0  0  0  0  0  0  0  0  0  0
   -6.9955    0.7177    0.0000 H   0  0  0  0  0  0  0  0  0  0  0  0
   -7.8194    2.6725    0.0000 H   0  0  0  0  0  0  0  0  0  0  0  0
  1 10  1  0
  1 22  1  0
  2 17  1  0
  2 23  1  0
  3  6  1  0
  3  8  1  0
  3 28  1  0
  4  5  1  0
  4  6  1  0
  4  9  2  0
  5  7  2  0
  5 12  1  0
  6 24  1  0
  6 25  1  0
  7 10  1  0
  7 14  1  0
  8 11  1  0
  8 26  1  0
  8 27  1  0
  9 13  1  0
  9 29  1  0
 10 13  2  0
 11 17  2  0
 11 18  1  0
 12 15  2  0
 12 30  1  0
 13 31  1  0
 14 16  2  0
 14 32  1  0
 15 16  1  0
 15 33  1  0
 16 34  1  0
 17 19  1  0
 18 20  2  0
 18 35  1  0
 19 21  2  0
 19 36  1  0
 20 21  1  0
 20 37  1  0
 21 38  1  0
 22 39  1  0
 22 40  1  0
 22 41  1  0
 23 42  1  0
 23 43  1  0
 23 44  1  0
M  STY  8   1 DAT   2 DAT   3 DAT   4 DAT   5 DAT   6 DAT   7 DAT   8 DAT
M  STY  8   9 DAT  10 DAT  11 DAT  12 DAT  13 DAT  14 DAT  15 DAT  16 DAT
M  STY  8  17 DAT  18 DAT  19 DAT  20 DAT  21 DAT  22 DAT  23 DAT  24 DAT
M  STY  8  25 DAT  26 DAT  27 DAT  28 DAT  29 DAT  30 DAT  31 DAT  32 DAT
M  STY  8  33 DAT  34 DAT  35 DAT  36 DAT  37 DAT  38 DAT  39 DAT  40 DAT
M  STY  4  41 DAT  42 DAT  43 DAT  44 DAT
M  SAL   1  1   1
M  SED   1 [#8&h0]
M  SAL   2  1   2
M  SED   2 [#8&h0]
M  SAL   3  1   3
M  SED   3 [#7&h0]
M  SAL   4  1   4
M  SED   4 [#6&h0]
M  SAL   5  1   5
M  SED   5 [#6&h0]
M  SAL   6  1   6
M  SED   6 [#6&h0]
M  SAL   7  1   7
M  SED   7 [#6&h0]
M  SAL   8  1   8
M  SED   8 [#6&h0]
M  SAL   9  1   9
M  SED   9 [#6&h0]
M  SAL  10  1  10
M  SED  10 [#6&h0]
M  SAL  11  1  11
M  SED  11 [#6&h0]
M  SAL  12  1  12
M  SED  12 [#6&h0]
M  SAL  13  1  13
M  SED  13 [#6&h0]
M  SAL  14  1  14
M  SED  14 [#6&h0]
M  SAL  15  1  15
M  SED  15 [#6&h0]
M  SAL  16  1  16
M  SED  16 [#6&h0]
M  SAL  17  1  17
M  SED  17 [#6&h0]
M  SAL  18  1  18
M  SED  18 [#6&h0]
M  SAL  19  1  19
M  SED  19 [#6&h0]
M  SAL  20  1  20
M  SED  20 [#6&h0]
M  SAL  21  1  21
M  SED  21 [#6&h0]
M  SAL  22  1  22
M  SED  22 [#6&h0]
M  SAL  23  1  23
M  SED  23 [#6&h0]
M  SAL  24  1  24
M  SED  24 [#1&h0]
M  SAL  25  1  25
M  SED  25 [#1&h0]
M  SAL  26  1  26
M  SED  26 [#1&h0]
M  SAL  27  1  27
M  SED  27 [#1&h0]
M  SAL  28  1  28
M  SED  28 [#1&h0]
M  SAL  29  1  29
M  SED  29 [#1&h0]
M  SAL  30  1  30
M  SED  30 [#1&h0]
M  SAL  31  1  31
M  SED  31 [#1&h0]
M  SAL  32  1  32
M  SED  32 [#1&h0]
M  SAL  33  1  33
M  SED  33 [#1&h0]
M  SAL  34  1  34
M  SED  34 [#1&h0]
M  SAL  35  1  35
M  SED  35 [#1&h0]
M  SAL  36  1  36
M  SED  36 [#1&h0]
M  SAL  37  1  37
M  SED  37 [#1&h0]
M  SAL  38  1  38
M  SED  38 [#1&h0]
M  SAL  39  1  39
M  SED  39 [#1&h0]
M  SAL  40  1  40
M  SED  40 [#1&h0]
M  SAL  41  1  41
M  SED  41 [#1&h0]
M  SAL  42  1  42
M  SED  42 [#1&h0]
M  SAL  43  1  43
M  SED  43 [#1&h0]
M  SAL  44  1  44
M  SED  44 [#1&h0]
M  END
>  <Activity>  (137) 
0.01

>  <Mapped(file=2032.csv.activities,property=Cached(PUBCHEM_COMPOUND_CID))>  (137) 
100

>  <MatchIndices>  (137) 
75 

>  <PUBCHEM_ATOM_DEF_STEREO_COUNT>  (137) 
0

>  <PUBCHEM_ATOM_UDEF_STEREO_COUNT>  (137) 
0

>  <PUBCHEM_BONDANNOTATIONS>  (137) 
10  13  8
11  17  8
11  18  8
12  15  8
14  16  8
15  16  8
17  19  8
18  20  8
19  21  8
20  21  8
4  5  8
4  9  8
5  12  8
5  7  8
7  10  8
7  14  8
9  13  8

>  <PUBCHEM_BOND_DEF_STEREO_COUNT>  (137) 
0

>  <PUBCHEM_BOND_UDEF_STEREO_COUNT>  (137) 
0

>  <PUBCHEM_CACTVS_COMPLEXITY>  (137) 
349

>  <PUBCHEM_CACTVS_HBOND_ACCEPTOR>  (137) 
3

>  <PUBCHEM_CACTVS_HBOND_DONOR>  (137) 
1

>  <PUBCHEM_CACTVS_ROTATABLE_BOND>  (137) 
6

>  <PUBCHEM_CACTVS_SUBSKEYS>  (137) 
AAADceB6MAAAAAAAAAAAAAAAAAAAAAAAAAAwYMAAAAAAAADBVAAAHgAQAAAADATBmAYyBsLABACAAiBCAACCCAAgIAAIiIAODIgMJiKEsRuEMChmwBGIqAeQ0PIOoAADAAAYAABAAAYAADAAAAAAAAAAAA==

>  <PUBCHEM_CACTVS_TAUTO_COUNT>  (137) 
1

>  <PUBCHEM_CACTVS_TPSA>  (137) 
30.5

>  <PUBCHEM_COMPONENT_COUNT>  (137) 
1

>  <PUBCHEM_COMPOUND_CANONICALIZED>  (137) 
1

>  <PUBCHEM_COMPOUND_CID>  (137) 
791864

>  <PUBCHEM_COORDINATE_TYPE>  (137) 
1
5
255

>  <PUBCHEM_EXACT_MASS>  (137) 
307.157229

>  <PUBCHEM_HEAVY_ATOM_COUNT>  (137) 
23

>  <PUBCHEM_ISOTOPIC_ATOM_COUNT>  (137) 
0

>  <PUBCHEM_IUPAC_CAS_NAME>  (137) 
N-[(4-methoxy-1-naphthalenyl)methyl]-1-(2-methoxyphenyl)methanamine

>  <PUBCHEM_IUPAC_INCHI>  (137) 
InChI=1S/C20H21NO2/c1-22-19-10-6-3-7-16(19)14-21-13-15-11-12-20(23-2)18-9-5-4-8-17(15)18/h3-12,21H,13-14H2,1-2H3

>  <PUBCHEM_IUPAC_INCHIKEY>  (137) 
BVTVXDNDPDQCNL-UHFFFAOYSA-N

>  <PUBCHEM_IUPAC_NAME>  (137) 
N-[(4-methoxynaphthalen-1-yl)methyl]-1-(2-methoxyphenyl)methanamine

>  <PUBCHEM_IUPAC_OPENEYE_NAME>  (137) 
N-[(4-methoxy-1-naphthyl)methyl]-1-(2-methoxyphenyl)methanamine

>  <PUBCHEM_IUPAC_SYSTEMATIC_NAME>  (137) 
N-[(4-methoxynaphthalen-1-yl)methyl]-1-(2-methoxyphenyl)methanamine

>  <PUBCHEM_IUPAC_TRADITIONAL_NAME>  (137) 
(4-methoxy-1-naphthyl)methyl-o-anisyl-amine

>  <PUBCHEM_MOLECULAR_FORMULA>  (137) 
C20H21NO2

>  <PUBCHEM_MOLECULAR_WEIGHT>  (137) 
307.38624

>  <PUBCHEM_MONOISOTOPIC_WEIGHT>  (137) 
307.157229

>  <PUBCHEM_OPENEYE_CAN_SMILES>  (137) 
COC1=CC=CC=C1CNCC2=CC=C(C3=CC=CC=C23)OC

>  <PUBCHEM_OPENEYE_ISO_SMILES>  (137) 
COC1=CC=CC=C1CNCC2=CC=C(C3=CC=CC=C23)OC

>  <PUBCHEM_TOTAL_CHARGE>  (137) 
0

>  <PUBCHEM_XLOGP3_AA>  (137) 
4

$$$$
Largest isolated from Written by BCL::WriteToMDL,2842642
     RDKit          2D

 38 39  0 38  0  0  0  0  0  0999 V2000
    0.4635   -1.0085    0.0000 S   0  0  0  0  0  0  0  0  0  0  0  0
   -0.1789    0.3470    0.0000 O   0  0  0  0  0  0  0  0  0  0  0  0
    1.1058   -2.3640    0.0000 O   0  0  0  0  0  0  0  0  0  0  0  0
    5.5211   -2.9243    0.0000 O   0  0  0  0  0  0  0  0  0  0  0  0
    6.9981   -0.7869    0.0000 O   0  0  0  0  0  0  0  0  0  0  0  0
   -0.8920   -1.6508    0.0000 N   0  0  0  0  0  0  0  0  0  0  0  0
    5.6426   -1.4292    0.0000 N   0  0  0  0  0  0  0  0  0  0  0  0
   -2.1261   -0.7981    0.0000 C   0  0  0  0  0  0  0  0  0  0  0  0
   -3.3601    0.0546    0.0000 C   0  0  0  0  0  0  0  0  0  0  0  0
    1.8190   -0.3661    0.0000 C   0  0  0  0  0  0  0  0  0  0  0  0
   -2.9788   -2.0322    0.0000 C   0  0  0  0  0  0  0  0  0  0  0  0
    3.0530   -1.2189    0.0000 C   0  0  0  0  0  0  0  0  0  0  0  0
    1.9404    1.1289    0.0000 C   0  0  0  0  0  0  0  0  0  0  0  0
    4.4085   -0.5765    0.0000 C   0  0  0  0  0  0  0  0  0  0  0  0
    4.5300    0.9186    0.0000 C   0  0  0  0  0  0  0  0  0  0  0  0
   -3.2387    1.5497    0.0000 C   0  0  0  0  0  0  0  0  0  0  0  0
   -4.7156   -0.5877    0.0000 C   0  0  0  0  0  0  0  0  0  0  0  0
    3.2959    1.7713    0.0000 C   0  0  0  0  0  0  0  0  0  0  0  0
   -4.4727    2.4024    0.0000 C   0  0  0  0  0  0  0  0  0  0  0  0
   -5.9497    0.2650    0.0000 C   0  0  0  0  0  0  0  0  0  0  0  0
    5.8855    1.5609    0.0000 C   0  0  0  0  0  0  0  0  0  0  0  0
   -5.8282    1.7601    0.0000 C   0  0  0  0  0  0  0  0  0  0  0  0
   -1.2733    0.4359    0.0000 H   0  0  0  0  0  0  0  0  0  0  0  0
   -0.8303   -3.1496    0.0000 H   0  0  0  0  0  0  0  0  0  0  0  0
   -3.8077   -1.7199    0.0000 H   0  0  0  0  0  0  0  0  0  0  0  0
   -1.8579   -3.0289    0.0000 H   0  0  0  0  0  0  0  0  0  0  0  0
   -3.8315   -3.2662    0.0000 H   0  0  0  0  0  0  0  0  0  0  0  0
    2.9316   -2.7139    0.0000 H   0  0  0  0  0  0  0  0  0  0  0  0
    0.7064    1.9817    0.0000 H   0  0  0  0  0  0  0  0  0  0  0  0
   -1.8832    2.1920    0.0000 H   0  0  0  0  0  0  0  0  0  0  0  0
   -4.7873   -1.4706    0.0000 H   0  0  0  0  0  0  0  0  0  0  0  0
    3.4174    3.2664    0.0000 H   0  0  0  0  0  0  0  0  0  0  0  0
   -4.3512    3.8975    0.0000 H   0  0  0  0  0  0  0  0  0  0  0  0
   -7.3052   -0.3774    0.0000 H   0  0  0  0  0  0  0  0  0  0  0  0
    6.5278    0.2054    0.0000 H   0  0  0  0  0  0  0  0  0  0  0  0
    5.2431    2.9164    0.0000 H   0  0  0  0  0  0  0  0  0  0  0  0
    7.2410    2.2033    0.0000 H   0  0  0  0  0  0  0  0  0  0  0  0
   -7.0622    2.6128    0.0000 H   0  0  0  0  0  0  0  0  0  0  0  0
  1  2  2  0
  1  3  2  0
  1  6  1  0
  1 10  1  0
  4  7  1  0
  5  7  2  0
  6  8  1  0
  6 24  1  0
  7 14  1  0
  8  9  1  0
  8 11  1  0
  8 23  1  1
  9 16  2  0
  9 17  1  0
 10 12  2  0
 10 13  1  0
 11 25  1  0
 11 26  1  0
 11 27  1  0
 12 14  1  0
 12 28  1  0
 13 18  2  0
 13 29  1  0
 14 15  2  0
 15 18  1  0
 15 21  1  0
 16 19  1  0
 16 30  1  0
 17 20  2  0
 17 31  1  0
 18 32  1  0
 19 22  2  0
 19 33  1  0
 20 22  1  0
 20 34  1  0
 21 35  1  0
 21 36  1  0
 21 37  1  0
 22 38  1  0
M  CHG  2   4  -1   7   1
V    4 [#8&-&h0]
V    7 [#7&+&h0]
M  STY  8   1 DAT   2 DAT   3 DAT   4 DAT   5 DAT   6 DAT   7 DAT   8 DAT
M  STY  8   9 DAT  10 DAT  11 DAT  12 DAT  13 DAT  14 DAT  15 DAT  16 DAT
M  STY  8  17 DAT  18 DAT  19 DAT  20 DAT  21 DAT  22 DAT  23 DAT  24 DAT
M  STY  8  25 DAT  26 DAT  27 DAT  28 DAT  29 DAT  30 DAT  31 DAT  32 DAT
M  STY  6  33 DAT  34 DAT  35 DAT  36 DAT  37 DAT  38 DAT
M  SAL   1  1   1
M  SED   1 [#16&h0]
M  SAL   2  1   2
M  SED   2 [#8&h0]
M  SAL   3  1   3
M  SED   3 [#8&h0]
M  SAL   4  1   4
M  SED   4 [#8&-&h0]
M  SAL   5  1   5
M  SED   5 [#8&h0]
M  SAL   6  1   6
M  SED   6 [#7&h0]
M  SAL   7  1   7
M  SED   7 [#7&+&h0]
M  SAL   8  1   8
M  SED   8 [#6&h0]
M  SAL   9  1   9
M  SED   9 [#6&h0]
M  SAL  10  1  10
M  SED  10 [#6&h0]
M  SAL  11  1  11
M  SED  11 [#6&h0]
M  SAL  12  1  12
M  SED  12 [#6&h0]
M  SAL  13  1  13
M  SED  13 [#6&h0]
M  SAL  14  1  14
M  SED  14 [#6&h0]
M  SAL  15  1  15
M  SED  15 [#6&h0]
M  SAL  16  1  16
M  SED  16 [#6&h0]
M  SAL  17  1  17
M  SED  17 [#6&h0]
M  SAL  18  1  18
M  SED  18 [#6&h0]
M  SAL  19  1  19
M  SED  19 [#6&h0]
M  SAL  20  1  20
M  SED  20 [#6&h0]
M  SAL  21  1  21
M  SED  21 [#6&h0]
M  SAL  22  1  22
M  SED  22 [#6&h0]
M  SAL  23  1  23
M  SED  23 [#1&h0]
M  SAL  24  1  24
M  SED  24 [#1&h0]
M  SAL  25  1  25
M  SED  25 [#1&h0]
M  SAL  26  1  26
M  SED  26 [#1&h0]
M  SAL  27  1  27
M  SED  27 [#1&h0]
M  SAL  28  1  28
M  SED  28 [#1&h0]
M  SAL  29  1  29
M  SED  29 [#1&h0]
M  SAL  30  1  30
M  SED  30 [#1&h0]
M  SAL  31  1  31
M  SED  31 [#1&h0]
M  SAL  32  1  32
M  SED  32 [#1&h0]
M  SAL  33  1  33
M  SED  33 [#1&h0]
M  SAL  34  1  34
M  SED  34 [#1&h0]
M  SAL  35  1  35
M  SED  35 [#1&h0]
M  SAL  36  1  36
M  SED  36 [#1&h0]
M  SAL  37  1  37
M  SED  37 [#1&h0]
M  SAL  38  1  38
M  SED  38 [#1&h0]
M  END
>  <Activity>  (138) 
0.01

>  <Mapped(file=2032.csv.activities,property=Cached(PUBCHEM_COMPOUND_CID))>  (138) 
100

>  <MatchIndices>  (138) 
124 

>  <PUBCHEM_ATOM_DEF_STEREO_COUNT>  (138) 
0

>  <PUBCHEM_ATOM_UDEF_STEREO_COUNT>  (138) 
1

>  <PUBCHEM_BONDANNOTATIONS>  (138) 
10  12  8
10  13  8
12  14  8
13  18  8
14  15  8
15  18  8
16  19  8
17  20  8
19  22  8
20  22  8
8  11  3
9  16  8
9  17  8

>  <PUBCHEM_BOND_DEF_STEREO_COUNT>  (138) 
0

>  <PUBCHEM_BOND_UDEF_STEREO_COUNT>  (138) 
0

>  <PUBCHEM_CACTVS_COMPLEXITY>  (138) 
477

>  <PUBCHEM_CACTVS_HBOND_ACCEPTOR>  (138) 
5

>  <PUBCHEM_CACTVS_HBOND_DONOR>  (138) 
1

>  <PUBCHEM_CACTVS_ROTATABLE_BOND>  (138) 
4

>  <PUBCHEM_CACTVS_SUBSKEYS>  (138) 
AAADceBzOABAAAAAAAAAAAAAAAAAAAAAAAAwYAAAAAAAAAABQAAAHAQUQAAADCjBWAQywYBQQAKBAiRCQ3DCABAgAgAoiJgAZIoIICKAkZGAIARgkAAIyAcQgIAOEAAAACACAAAgAAAAQAQAAAAAAAAAAA==

>  <PUBCHEM_CACTVS_TAUTO_COUNT>  (138) 
1

>  <PUBCHEM_CACTVS_TPSA>  (138) 
100

>  <PUBCHEM_COMPONENT_COUNT>  (138) 
1

>  <PUBCHEM_COMPOUND_CANONICALIZED>  (138) 
1

>  <PUBCHEM_COMPOUND_CID>  (138) 
2842642

>  <PUBCHEM_COORDINATE_TYPE>  (138) 
1
5
255

>  <PUBCHEM_EXACT_MASS>  (138) 
320.083078

>  <PUBCHEM_HEAVY_ATOM_COUNT>  (138) 
22

>  <PUBCHEM_ISOTOPIC_ATOM_COUNT>  (138) 
0

>  <PUBCHEM_IUPAC_CAS_NAME>  (138) 
4-methyl-3-nitro-N-(1-phenylethyl)benzenesulfonamide

>  <PUBCHEM_IUPAC_INCHI>  (138) 
InChI=1S/C15H16N2O4S/c1-11-8-9-14(10-15(11)17(18)19)22(20,21)16-12(2)13-6-4-3-5-7-13/h3-10,12,16H,1-2H3

>  <PUBCHEM_IUPAC_INCHIKEY>  (138) 
NTKZVGOOKKHPEV-UHFFFAOYSA-N

>  <PUBCHEM_IUPAC_NAME>  (138) 
4-methyl-3-nitro-N-(1-phenylethyl)benzenesulfonamide

>  <PUBCHEM_IUPAC_OPENEYE_NAME>  (138) 
4-methyl-3-nitro-N-(1-phenylethyl)benzenesulfonamide

>  <PUBCHEM_IUPAC_SYSTEMATIC_NAME>  (138) 
4-methyl-3-nitro-N-(1-phenylethyl)benzenesulfonamide

>  <PUBCHEM_IUPAC_TRADITIONAL_NAME>  (138) 
4-methyl-3-nitro-N-(1-phenylethyl)benzenesulfonamide

>  <PUBCHEM_MOLECULAR_FORMULA>  (138) 
C15H16N2O4S

>  <PUBCHEM_MOLECULAR_WEIGHT>  (138) 
320.36354

>  <PUBCHEM_MONOISOTOPIC_WEIGHT>  (138) 
320.083078

>  <PUBCHEM_OPENEYE_CAN_SMILES>  (138) 
CC1=C(C=C(C=C1)S(=O)(=O)NC(C)C2=CC=CC=C2)[N+](=O)[O-]

>  <PUBCHEM_OPENEYE_ISO_SMILES>  (138) 
CC1=C(C=C(C=C1)S(=O)(=O)NC(C)C2=CC=CC=C2)[N+](=O)[O-]

>  <PUBCHEM_TOTAL_CHARGE>  (138) 
0

>  <PUBCHEM_XLOGP3_AA>  (138) 
3

$$$$
Largest isolated from Written by BCL::WriteToMDL,1267712
     RDKit          2D

 44 47  0 44  0  0  0  0  0  0999 V2000
  -10.1966    1.0563    0.0000 Cl  0  0  0  0  0  0  0  0  0  0  0  0
    1.8204    0.4896    0.0000 S   0  0  0  0  0  0  0  0  0  0  0  0
   -2.0361   -0.8019    0.0000 O   0  0  0  0  0  0  0  0  0  0  0  0
   -4.4804   -2.7615    0.0000 O   0  0  0  0  0  0  0  0  0  0  0  0
    4.0910   -0.9208    0.0000 N   0  0  0  0  0  0  0  0  0  0  0  0
    2.0140   -2.1764    0.0000 N   0  0  0  0  0  0  0  0  0  0  0  0
    3.1487   -3.1575    0.0000 N   0  0  0  0  0  0  0  0  0  0  0  0
    5.0721    0.2139    0.0000 C   0  0  0  0  0  0  0  0  0  0  0  0
    2.5964   -0.7941    0.0000 C   0  0  0  0  0  0  0  0  0  0  0  0
    4.4324   -2.3814    0.0000 C   0  0  0  0  0  0  0  0  0  0  0  0
    0.3207    0.4593    0.0000 C   0  0  0  0  0  0  0  0  0  0  0  0
   -1.1790    0.4291    0.0000 C   0  0  0  0  0  0  0  0  0  0  0  0
   -3.4717   -0.3672    0.0000 C   0  0  0  0  0  0  0  0  0  0  0  0
   -2.0850    1.6246    0.0000 C   0  0  0  0  0  0  0  0  0  0  0  0
    6.5453   -0.0683    0.0000 C   0  0  0  0  0  0  0  0  0  0  0  0
    4.5799    1.6309    0.0000 C   0  0  0  0  0  0  0  0  0  0  0  0
   -3.5019    1.1325    0.0000 C   0  0  0  0  0  0  0  0  0  0  0  0
   -4.6672   -1.2732    0.0000 C   0  0  0  0  0  0  0  0  0  0  0  0
    5.8147   -2.9638    0.0000 C   0  0  0  0  0  0  0  0  0  0  0  0
   -6.0496   -0.6908    0.0000 C   0  0  0  0  0  0  0  0  0  0  0  0
    7.5263    1.0664    0.0000 C   0  0  0  0  0  0  0  0  0  0  0  0
    5.5609    2.7656    0.0000 C   0  0  0  0  0  0  0  0  0  0  0  0
    7.0341    2.4834    0.0000 C   0  0  0  0  0  0  0  0  0  0  0  0
   -6.2364    0.7975    0.0000 C   0  0  0  0  0  0  0  0  0  0  0  0
   -7.2451   -1.5968    0.0000 C   0  0  0  0  0  0  0  0  0  0  0  0
   -7.6187    1.3799    0.0000 C   0  0  0  0  0  0  0  0  0  0  0  0
   -8.6274   -1.0144    0.0000 C   0  0  0  0  0  0  0  0  0  0  0  0
   -8.8142    0.4739    0.0000 C   0  0  0  0  0  0  0  0  0  0  0  0
    0.2904    1.9590    0.0000 H   0  0  0  0  0  0  0  0  0  0  0  0
    0.3509   -1.0404    0.0000 H   0  0  0  0  0  0  0  0  0  0  0  0
   -1.6503    3.0603    0.0000 H   0  0  0  0  0  0  0  0  0  0  0  0
   -4.4070    1.9430    0.0000 H   0  0  0  0  0  0  0  0  0  0  0  0
    7.0809   -1.1589    0.0000 H   0  0  0  0  0  0  0  0  0  0  0  0
    3.1067    1.9131    0.0000 H   0  0  0  0  0  0  0  0  0  0  0  0
    6.4194   -1.9100    0.0000 H   0  0  0  0  0  0  0  0  0  0  0  0
    5.2324   -4.3461    0.0000 H   0  0  0  0  0  0  0  0  0  0  0  0
    7.1971   -3.5462    0.0000 H   0  0  0  0  0  0  0  0  0  0  0  0
    8.9995    0.7842    0.0000 H   0  0  0  0  0  0  0  0  0  0  0  0
    5.0687    4.1826    0.0000 H   0  0  0  0  0  0  0  0  0  0  0  0
    8.0151    3.6181    0.0000 H   0  0  0  0  0  0  0  0  0  0  0  0
   -5.3647    1.6439    0.0000 H   0  0  0  0  0  0  0  0  0  0  0  0
   -7.0582   -3.0851    0.0000 H   0  0  0  0  0  0  0  0  0  0  0  0
   -7.8055    2.8682    0.0000 H   0  0  0  0  0  0  0  0  0  0  0  0
   -9.8229   -1.9204    0.0000 H   0  0  0  0  0  0  0  0  0  0  0  0
  1 28  1  0
  2  9  1  0
  2 11  1  0
  3 12  1  0
  3 13  1  0
  4 18  2  0
  5  8  1  0
  5  9  1  0
  5 10  1  0
  6  7  1  0
  6  9  2  0
  7 10  2  0
  8 15  2  0
  8 16  1  0
 10 19  1  0
 11 12  1  0
 11 29  1  0
 11 30  1  0
 12 14  2  0
 13 17  2  0
 13 18  1  0
 14 17  1  0
 14 31  1  0
 15 21  1  0
 15 33  1  0
 16 22  2  0
 16 34  1  0
 17 32  1  0
 18 20  1  0
 19 35  1  0
 19 36  1  0
 19 37  1  0
 20 24  2  0
 20 25  1  0
 21 23  2  0
 21 38  1  0
 22 23  1  0
 22 39  1  0
 23 40  1  0
 24 26  1  0
 24 41  1  0
 25 27  2  0
 25 42  1  0
 26 28  2  0
 26 43  1  0
 27 28  1  0
 27 44  1  0
M  STY  8   1 DAT   2 DAT   3 DAT   4 DAT   5 DAT   6 DAT   7 DAT   8 DAT
M  STY  8   9 DAT  10 DAT  11 DAT  12 DAT  13 DAT  14 DAT  15 DAT  16 DAT
M  STY  8  17 DAT  18 DAT  19 DAT  20 DAT  21 DAT  22 DAT  23 DAT  24 DAT
M  STY  8  25 DAT  26 DAT  27 DAT  28 DAT  29 DAT  30 DAT  31 DAT  32 DAT
M  STY  8  33 DAT  34 DAT  35 DAT  36 DAT  37 DAT  38 DAT  39 DAT  40 DAT
M  STY  4  41 DAT  42 DAT  43 DAT  44 DAT
M  SAL   1  1   1
M  SED   1 [#17&h0]
M  SAL   2  1   2
M  SED   2 [#16&h0]
M  SAL   3  1   3
M  SED   3 [#8&h0]
M  SAL   4  1   4
M  SED   4 [#8&h0]
M  SAL   5  1   5
M  SED   5 [#7&h0]
M  SAL   6  1   6
M  SED   6 [#7&h0]
M  SAL   7  1   7
M  SED   7 [#7&h0]
M  SAL   8  1   8
M  SED   8 [#6&h0]
M  SAL   9  1   9
M  SED   9 [#6&h0]
M  SAL  10  1  10
M  SED  10 [#6&h0]
M  SAL  11  1  11
M  SED  11 [#6&h0]
M  SAL  12  1  12
M  SED  12 [#6&h0]
M  SAL  13  1  13
M  SED  13 [#6&h0]
M  SAL  14  1  14
M  SED  14 [#6&h0]
M  SAL  15  1  15
M  SED  15 [#6&h0]
M  SAL  16  1  16
M  SED  16 [#6&h0]
M  SAL  17  1  17
M  SED  17 [#6&h0]
M  SAL  18  1  18
M  SED  18 [#6&h0]
M  SAL  19  1  19
M  SED  19 [#6&h0]
M  SAL  20  1  20
M  SED  20 [#6&h0]
M  SAL  21  1  21
M  SED  21 [#6&h0]
M  SAL  22  1  22
M  SED  22 [#6&h0]
M  SAL  23  1  23
M  SED  23 [#6&h0]
M  SAL  24  1  24
M  SED  24 [#6&h0]
M  SAL  25  1  25
M  SED  25 [#6&h0]
M  SAL  26  1  26
M  SED  26 [#6&h0]
M  SAL  27  1  27
M  SED  27 [#6&h0]
M  SAL  28  1  28
M  SED  28 [#6&h0]
M  SAL  29  1  29
M  SED  29 [#1&h0]
M  SAL  30  1  30
M  SED  30 [#1&h0]
M  SAL  31  1  31
M  SED  31 [#1&h0]
M  SAL  32  1  32
M  SED  32 [#1&h0]
M  SAL  33  1  33
M  SED  33 [#1&h0]
M  SAL  34  1  34
M  SED  34 [#1&h0]
M  SAL  35  1  35
M  SED  35 [#1&h0]
M  SAL  36  1  36
M  SED  36 [#1&h0]
M  SAL  37  1  37
M  SED  37 [#1&h0]
M  SAL  38  1  38
M  SED  38 [#1&h0]
M  SAL  39  1  39
M  SED  39 [#1&h0]
M  SAL  40  1  40
M  SED  40 [#1&h0]
M  SAL  41  1  41
M  SED  41 [#1&h0]
M  SAL  42  1  42
M  SED  42 [#1&h0]
M  SAL  43  1  43
M  SED  43 [#1&h0]
M  SAL  44  1  44
M  SED  44 [#1&h0]
M  END
>  <Activity>  (139) 
0.01

>  <Mapped(file=2032.csv.activities,property=Cached(PUBCHEM_COMPOUND_CID))>  (139) 
100

>  <MatchIndices>  (139) 
159 

>  <PUBCHEM_ATOM_DEF_STEREO_COUNT>  (139) 
0

>  <PUBCHEM_ATOM_UDEF_STEREO_COUNT>  (139) 
0

>  <PUBCHEM_BONDANNOTATIONS>  (139) 
12  14  8
13  17  8
14  17  8
15  21  8
16  22  8
20  24  8
20  25  8
21  23  8
22  23  8
24  26  8
25  27  8
26  28  8
27  28  8
3  12  8
3  13  8
5  10  8
5  9  8
6  7  8
6  9  8
7  10  8
8  15  8
8  16  8

>  <PUBCHEM_BOND_DEF_STEREO_COUNT>  (139) 
0

>  <PUBCHEM_BOND_UDEF_STEREO_COUNT>  (139) 
0

>  <PUBCHEM_CACTVS_COMPLEXITY>  (139) 
526

>  <PUBCHEM_CACTVS_HBOND_ACCEPTOR>  (139) 
3

>  <PUBCHEM_CACTVS_HBOND_DONOR>  (139) 
0

>  <PUBCHEM_CACTVS_ROTATABLE_BOND>  (139) 
6

>  <PUBCHEM_CACTVS_SUBSKEYS>  (139) 
AAADceB7MABEAAAAAAAAAAAAAAAAAWJAAAAwYAAAAAAAAAAB9AAAHgYIAAAADA6F2yCz1IcMFEiqAqZyZAKS2CtlJ7AdiAFWbsiMLjLlv5+GOSjkyBPI6aeYzuDuBAAAAAAAAAAIAAAAAAAAAAAAAAAAAA==

>  <PUBCHEM_CACTVS_TAUTO_COUNT>  (139) 
1

>  <PUBCHEM_CACTVS_TPSA>  (139) 
86.2

>  <PUBCHEM_COMPONENT_COUNT>  (139) 
1

>  <PUBCHEM_COMPOUND_CANONICALIZED>  (139) 
1

>  <PUBCHEM_COMPOUND_CID>  (139) 
1267712

>  <PUBCHEM_COORDINATE_TYPE>  (139) 
1
5
255

>  <PUBCHEM_EXACT_MASS>  (139) 
409.065175

>  <PUBCHEM_HEAVY_ATOM_COUNT>  (139) 
28

>  <PUBCHEM_ISOTOPIC_ATOM_COUNT>  (139) 
0

>  <PUBCHEM_IUPAC_CAS_NAME>  (139) 
(4-chlorophenyl)-[5-[[(5-methyl-4-phenyl-1,2,4-triazol-3-yl)thio]methyl]-2-furanyl]methanone

>  <PUBCHEM_IUPAC_INCHI>  (139) 
InChI=1S/C21H16ClN3O2S/c1-14-23-24-21(25(14)17-5-3-2-4-6-17)28-13-18-11-12-19(27-18)20(26)15-7-9-16(22)10-8-15/h2-12H,13H2,1H3

>  <PUBCHEM_IUPAC_INCHIKEY>  (139) 
PMUFZQFGXVQWPX-UHFFFAOYSA-N

>  <PUBCHEM_IUPAC_NAME>  (139) 
(4-chlorophenyl)-[5-[(5-methyl-4-phenyl-1,2,4-triazol-3-yl)sulfanylmethyl]furan-2-yl]methanone

>  <PUBCHEM_IUPAC_OPENEYE_NAME>  (139) 
(4-chlorophenyl)-[5-[(5-methyl-4-phenyl-1,2,4-triazol-3-yl)sulfanylmethyl]-2-furyl]methanone

>  <PUBCHEM_IUPAC_SYSTEMATIC_NAME>  (139) 
(4-chlorophenyl)-[5-[(5-methyl-4-phenyl-1,2,4-triazol-3-yl)sulfanylmethyl]furan-2-yl]methanone

>  <PUBCHEM_IUPAC_TRADITIONAL_NAME>  (139) 
(4-chlorophenyl)-[5-[[(5-methyl-4-phenyl-1,2,4-triazol-3-yl)thio]methyl]-2-furyl]methanone

>  <PUBCHEM_MOLECULAR_FORMULA>  (139) 
C21H16ClN3O2S

>  <PUBCHEM_MOLECULAR_WEIGHT>  (139) 
409.88864

>  <PUBCHEM_MONOISOTOPIC_WEIGHT>  (139) 
409.065175

>  <PUBCHEM_OPENEYE_CAN_SMILES>  (139) 
CC1=NN=C(N1C2=CC=CC=C2)SCC3=CC=C(O3)C(=O)C4=CC=C(C=C4)Cl

>  <PUBCHEM_OPENEYE_ISO_SMILES>  (139) 
CC1=NN=C(N1C2=CC=CC=C2)SCC3=CC=C(O3)C(=O)C4=CC=C(C=C4)Cl

>  <PUBCHEM_TOTAL_CHARGE>  (139) 
0

>  <PUBCHEM_XLOGP3_AA>  (139) 
5.2

$$$$
Largest isolated from Written by BCL::WriteToMDL,3238125
     RDKit          2D

 38 38  0 38  0  0  0  0  0  0999 V2000
    6.7789   -2.7011    0.0000 Br  0  0  0  0  0  0  0  0  0  0  0  0
    1.6923    0.4811    0.0000 S   0  0  0  0  0  0  0  0  0  0  0  0
   -2.2820   -1.6294    0.0000 O   0  0  0  0  0  0  0  0  0  0  0  0
    0.8968   -0.7905    0.0000 O   0  0  0  0  0  0  0  0  0  0  0  0
    2.4879    1.7528    0.0000 O   0  0  0  0  0  0  0  0  0  0  0  0
   -3.5880    0.5043    0.0000 O   0  0  0  0  0  0  0  0  0  0  0  0
    0.4207    1.2767    0.0000 N   0  0  0  0  0  0  0  0  0  0  0  0
   -1.6076    1.8980    0.0000 C   0  0  0  0  0  0  0  0  0  0  0  0
   -0.9041    0.5732    0.0000 C   0  0  0  0  0  0  0  0  0  0  0  0
   -0.2828    2.6015    0.0000 C   0  0  0  0  0  0  0  0  0  0  0  0
   -2.3111    3.2228    0.0000 C   0  0  0  0  0  0  0  0  0  0  0  0
   -2.2289   -0.1303    0.0000 C   0  0  0  0  0  0  0  0  0  0  0  0
    2.9640   -0.3144    0.0000 C   0  0  0  0  0  0  0  0  0  0  0  0
    2.9109   -1.8135    0.0000 C   0  0  0  0  0  0  0  0  0  0  0  0
    4.2888    0.3891    0.0000 C   0  0  0  0  0  0  0  0  0  0  0  0
   -3.6068   -2.3329    0.0000 C   0  0  0  0  0  0  0  0  0  0  0  0
    4.1825   -2.6090    0.0000 C   0  0  0  0  0  0  0  0  0  0  0  0
    5.5604   -0.4065    0.0000 C   0  0  0  0  0  0  0  0  0  0  0  0
    5.5073   -1.9055    0.0000 C   0  0  0  0  0  0  0  0  0  0  0  0
   -4.9316   -3.0364    0.0000 C   0  0  0  0  0  0  0  0  0  0  0  0
   -3.0083    1.3612    0.0000 H   0  0  0  0  0  0  0  0  0  0  0  0
   -0.2006   -0.7516    0.0000 H   0  0  0  0  0  0  0  0  0  0  0  0
    1.0076    2.6571    0.0000 H   0  0  0  0  0  0  0  0  0  0  0  0
   -0.8196    4.0022    0.0000 H   0  0  0  0  0  0  0  0  0  0  0  0
    0.2503    2.0088    0.0000 H   0  0  0  0  0  0  0  0  0  0  0  0
    0.9463    3.4612    0.0000 H   0  0  0  0  0  0  0  0  0  0  0  0
   -3.6359    2.5193    0.0000 H   0  0  0  0  0  0  0  0  0  0  0  0
   -1.0820    4.0825    0.0000 H   0  0  0  0  0  0  0  0  0  0  0  0
   -3.0146    4.5476    0.0000 H   0  0  0  0  0  0  0  0  0  0  0  0
    1.5861   -2.5170    0.0000 H   0  0  0  0  0  0  0  0  0  0  0  0
    4.3419    1.8882    0.0000 H   0  0  0  0  0  0  0  0  0  0  0  0
   -2.9033   -3.6577    0.0000 H   0  0  0  0  0  0  0  0  0  0  0  0
   -4.3103   -1.0081    0.0000 H   0  0  0  0  0  0  0  0  0  0  0  0
    4.1294   -4.1081    0.0000 H   0  0  0  0  0  0  0  0  0  0  0  0
    6.8852    0.2971    0.0000 H   0  0  0  0  0  0  0  0  0  0  0  0
   -5.6351   -1.7116    0.0000 H   0  0  0  0  0  0  0  0  0  0  0  0
   -4.2281   -4.3612    0.0000 H   0  0  0  0  0  0  0  0  0  0  0  0
   -6.2564   -3.7399    0.0000 H   0  0  0  0  0  0  0  0  0  0  0  0
  1 19  1  0
  2  4  2  0
  2  5  2  0
  2  7  1  0
  2 13  1  0
  3 12  1  0
  3 16  1  0
  6 12  2  0
  7  9  1  0
  7 23  1  0
  8  9  1  0
  8 10  1  0
  8 11  1  0
  8 21  1  0
  9 12  1  0
  9 22  1  1
 10 24  1  0
 10 25  1  0
 10 26  1  0
 11 27  1  0
 11 28  1  0
 11 29  1  0
 13 14  2  0
 13 15  1  0
 14 17  1  0
 14 30  1  0
 15 18  2  0
 15 31  1  0
 16 20  1  0
 16 32  1  0
 16 33  1  0
 17 19  2  0
 17 34  1  0
 18 19  1  0
 18 35  1  0
 20 36  1  0
 20 37  1  0
 20 38  1  0
M  STY  8   1 DAT   2 DAT   3 DAT   4 DAT   5 DAT   6 DAT   7 DAT   8 DAT
M  STY  8   9 DAT  10 DAT  11 DAT  12 DAT  13 DAT  14 DAT  15 DAT  16 DAT
M  STY  8  17 DAT  18 DAT  19 DAT  20 DAT  21 DAT  22 DAT  23 DAT  24 DAT
M  STY  8  25 DAT  26 DAT  27 DAT  28 DAT  29 DAT  30 DAT  31 DAT  32 DAT
M  STY  6  33 DAT  34 DAT  35 DAT  36 DAT  37 DAT  38 DAT
M  SAL   1  1   1
M  SED   1 [#35&h0]
M  SAL   2  1   2
M  SED   2 [#16&h0]
M  SAL   3  1   3
M  SED   3 [#8&h0]
M  SAL   4  1   4
M  SED   4 [#8&h0]
M  SAL   5  1   5
M  SED   5 [#8&h0]
M  SAL   6  1   6
M  SED   6 [#8&h0]
M  SAL   7  1   7
M  SED   7 [#7&h0]
M  SAL   8  1   8
M  SED   8 [#6&h0]
M  SAL   9  1   9
M  SED   9 [#6&h0]
M  SAL  10  1  10
M  SED  10 [#6&h0]
M  SAL  11  1  11
M  SED  11 [#6&h0]
M  SAL  12  1  12
M  SED  12 [#6&h0]
M  SAL  13  1  13
M  SED  13 [#6&h0]
M  SAL  14  1  14
M  SED  14 [#6&h0]
M  SAL  15  1  15
M  SED  15 [#6&h0]
M  SAL  16  1  16
M  SED  16 [#6&h0]
M  SAL  17  1  17
M  SED  17 [#6&h0]
M  SAL  18  1  18
M  SED  18 [#6&h0]
M  SAL  19  1  19
M  SED  19 [#6&h0]
M  SAL  20  1  20
M  SED  20 [#6&h0]
M  SAL  21  1  21
M  SED  21 [#1&h0]
M  SAL  22  1  22
M  SED  22 [#1&h0]
M  SAL  23  1  23
M  SED  23 [#1&h0]
M  SAL  24  1  24
M  SED  24 [#1&h0]
M  SAL  25  1  25
M  SED  25 [#1&h0]
M  SAL  26  1  26
M  SED  26 [#1&h0]
M  SAL  27  1  27
M  SED  27 [#1&h0]
M  SAL  28  1  28
M  SED  28 [#1&h0]
M  SAL  29  1  29
M  SED  29 [#1&h0]
M  SAL  30  1  30
M  SED  30 [#1&h0]
M  SAL  31  1  31
M  SED  31 [#1&h0]
M  SAL  32  1  32
M  SED  32 [#1&h0]
M  SAL  33  1  33
M  SED  33 [#1&h0]
M  SAL  34  1  34
M  SED  34 [#1&h0]
M  SAL  35  1  35
M  SED  35 [#1&h0]
M  SAL  36  1  36
M  SED  36 [#1&h0]
M  SAL  37  1  37
M  SED  37 [#1&h0]
M  SAL  38  1  38
M  SED  38 [#1&h0]
M  END
>  <Activity>  (140) 
0.01

>  <Mapped(file=2032.csv.activities,property=Cached(PUBCHEM_COMPOUND_CID))>  (140) 
100

>  <MatchIndices>  (140) 
59 

>  <PUBCHEM_ATOM_DEF_STEREO_COUNT>  (140) 
0

>  <PUBCHEM_ATOM_UDEF_STEREO_COUNT>  (140) 
1

>  <PUBCHEM_BONDANNOTATIONS>  (140) 
13  14  8
13  15  8
14  17  8
15  18  8
17  19  8
18  19  8
9  8  3

>  <PUBCHEM_BOND_DEF_STEREO_COUNT>  (140) 
0

>  <PUBCHEM_BOND_UDEF_STEREO_COUNT>  (140) 
0

>  <PUBCHEM_CACTVS_COMPLEXITY>  (140) 
411

>  <PUBCHEM_CACTVS_HBOND_ACCEPTOR>  (140) 
5

>  <PUBCHEM_CACTVS_HBOND_DONOR>  (140) 
1

>  <PUBCHEM_CACTVS_ROTATABLE_BOND>  (140) 
7

>  <PUBCHEM_CACTVS_SUBSKEYS>  (140) 
AAADceByOABAEAAAAAAAAAAAAAAAAAAAAAAwAAAAAAAAAAABAAAAHgRQQAABrSjh0AYyCYBABAKIACDSCHBCABAgAAQIiJmAAKgKIDKAERCDIAAkkAAIihcAAAAIAAEAAAAAAAAAAgAAAAAAAAAAAAAAAA==

>  <PUBCHEM_CACTVS_TAUTO_COUNT>  (140) 
1

>  <PUBCHEM_CACTVS_TPSA>  (140) 
80.8

>  <PUBCHEM_COMPONENT_COUNT>  (140) 
1

>  <PUBCHEM_COMPOUND_CANONICALIZED>  (140) 
1

>  <PUBCHEM_COMPOUND_CID>  (140) 
3238125

>  <PUBCHEM_COORDINATE_TYPE>  (140) 
1
5
255

>  <PUBCHEM_EXACT_MASS>  (140) 
363.013991

>  <PUBCHEM_HEAVY_ATOM_COUNT>  (140) 
20

>  <PUBCHEM_ISOTOPIC_ATOM_COUNT>  (140) 
0

>  <PUBCHEM_IUPAC_CAS_NAME>  (140) 
2-[(4-bromophenyl)sulfonylamino]-3-methylbutanoic acid ethyl ester

>  <PUBCHEM_IUPAC_INCHI>  (140) 
InChI=1S/C13H18BrNO4S/c1-4-19-13(16)12(9(2)3)15-20(17,18)11-7-5-10(14)6-8-11/h5-9,12,15H,4H2,1-3H3

>  <PUBCHEM_IUPAC_INCHIKEY>  (140) 
ZOSZQGBQDQGLCB-UHFFFAOYSA-N

>  <PUBCHEM_IUPAC_NAME>  (140) 
ethyl 2-[(4-bromophenyl)sulfonylamino]-3-methylbutanoate

>  <PUBCHEM_IUPAC_OPENEYE_NAME>  (140) 
ethyl 2-[(4-bromophenyl)sulfonylamino]-3-methyl-butanoate

>  <PUBCHEM_IUPAC_SYSTEMATIC_NAME>  (140) 
ethyl 2-[(4-bromophenyl)sulfonylamino]-3-methyl-butanoate

>  <PUBCHEM_IUPAC_TRADITIONAL_NAME>  (140) 
2-(brosylamino)-3-methyl-butyric acid ethyl ester

>  <PUBCHEM_MOLECULAR_FORMULA>  (140) 
C13H18BrNO4S

>  <PUBCHEM_MOLECULAR_WEIGHT>  (140) 
364.25532

>  <PUBCHEM_MONOISOTOPIC_WEIGHT>  (140) 
363.013991

>  <PUBCHEM_OPENEYE_CAN_SMILES>  (140) 
CCOC(=O)C(C(C)C)NS(=O)(=O)C1=CC=C(C=C1)Br

>  <PUBCHEM_OPENEYE_ISO_SMILES>  (140) 
CCOC(=O)C(C(C)C)NS(=O)(=O)C1=CC=C(C=C1)Br

>  <PUBCHEM_TOTAL_CHARGE>  (140) 
0

>  <PUBCHEM_XLOGP3_AA>  (140) 
3.2

$$$$
Largest isolated from Written by BCL::WriteToMDL,20937322
     RDKit          2D

 40 41  0 40  0  0  0  0  0  0999 V2000
   -0.8312   -0.4327    0.0000 S   0  0  0  0  0  0  0  0  0  0  0  0
   -4.5702   -1.4745    0.0000 S   0  0  0  0  0  0  0  0  0  0  0  0
   -0.7154   -1.9282    0.0000 O   0  0  0  0  0  0  0  0  0  0  0  0
   -0.9470    1.0629    0.0000 O   0  0  0  0  0  0  0  0  0  0  0  0
    3.8599   -2.8324    0.0000 O   0  0  0  0  0  0  0  0  0  0  0  0
   -5.9229    2.3058    0.0000 O   0  0  0  0  0  0  0  0  0  0  0  0
    0.6643   -0.3168    0.0000 N   0  0  0  0  0  0  0  0  0  0  0  0
   -7.2831    0.0923    0.0000 N   0  0  0  0  0  0  0  0  0  0  0  0
    1.3118    1.0363    0.0000 C   0  0  0  0  0  0  0  0  0  0  0  0
    1.9592    2.3893    0.0000 C   0  0  0  0  0  0  0  0  0  0  0  0
    1.5124   -1.5541    0.0000 C   0  0  0  0  0  0  0  0  0  0  0  0
    2.6067    3.7424    0.0000 C   0  0  0  0  0  0  0  0  0  0  0  0
   -2.3267   -0.5485    0.0000 C   0  0  0  0  0  0  0  0  0  0  0  0
    2.3605   -2.7913    0.0000 C   0  0  0  0  0  0  0  0  0  0  0  0
    3.2541    5.0955    0.0000 C   0  0  0  0  0  0  0  0  0  0  0  0
   -3.2995    0.5933    0.0000 C   0  0  0  0  0  0  0  0  0  0  0  0
   -3.1120   -1.8265    0.0000 C   0  0  0  0  0  0  0  0  0  0  0  0
    1.8580   -4.2046    0.0000 C   0  0  0  0  0  0  0  0  0  0  0  0
   -4.6860    0.0210    0.0000 C   0  0  0  0  0  0  0  0  0  0  0  0
    3.0469   -5.1193    0.0000 C   0  0  0  0  0  0  0  0  0  0  0  0
    4.2842   -4.2712    0.0000 C   0  0  0  0  0  0  0  0  0  0  0  0
   -5.9640    0.8064    0.0000 C   0  0  0  0  0  0  0  0  0  0  0  0
    2.6649    0.3888    0.0000 H   0  0  0  0  0  0  0  0  0  0  0  0
   -0.0413    1.6837    0.0000 H   0  0  0  0  0  0  0  0  0  0  0  0
    0.6061    3.0368    0.0000 H   0  0  0  0  0  0  0  0  0  0  0  0
    3.3123    1.7419    0.0000 H   0  0  0  0  0  0  0  0  0  0  0  0
    2.7496   -0.7060    0.0000 H   0  0  0  0  0  0  0  0  0  0  0  0
    0.2752   -2.4021    0.0000 H   0  0  0  0  0  0  0  0  0  0  0  0
    3.9597    3.0950    0.0000 H   0  0  0  0  0  0  0  0  0  0  0  0
    1.2536    4.3899    0.0000 H   0  0  0  0  0  0  0  0  0  0  0  0
    1.9010    5.7429    0.0000 H   0  0  0  0  0  0  0  0  0  0  0  0
    4.6072    4.4480    0.0000 H   0  0  0  0  0  0  0  0  0  0  0  0
    3.9016    6.4486    0.0000 H   0  0  0  0  0  0  0  0  0  0  0  0
   -2.9475    2.0514    0.0000 H   0  0  0  0  0  0  0  0  0  0  0  0
   -2.5397   -3.2130    0.0000 H   0  0  0  0  0  0  0  0  0  0  0  0
    0.4193   -4.6289    0.0000 H   0  0  0  0  0  0  0  0  0  0  0  0
    3.0058   -6.6187    0.0000 H   0  0  0  0  0  0  0  0  0  0  0  0
    5.6975   -4.7737    0.0000 H   0  0  0  0  0  0  0  0  0  0  0  0
   -8.5611    0.8776    0.0000 H   0  0  0  0  0  0  0  0  0  0  0  0
   -7.3242   -1.4072    0.0000 H   0  0  0  0  0  0  0  0  0  0  0  0
  1  3  2  0
  1  4  2  0
  1  7  1  0
  1 13  1  0
  2 17  1  0
  2 19  1  0
  5 14  1  0
  5 21  1  0
  6 22  2  0
  7  9  1  0
  7 11  1  0
  8 22  1  0
  8 39  1  0
  8 40  1  0
  9 10  1  0
  9 23  1  0
  9 24  1  0
 10 12  1  0
 10 25  1  0
 10 26  1  0
 11 14  1  0
 11 27  1  0
 11 28  1  0
 12 15  1  0
 12 29  1  0
 12 30  1  0
 13 16  1  0
 13 17  2  0
 14 18  2  0
 15 31  1  0
 15 32  1  0
 15 33  1  0
 16 19  2  0
 16 34  1  0
 17 35  1  0
 18 20  1  0
 18 36  1  0
 19 22  1  0
 20 21  2  0
 20 37  1  0
 21 38  1  0
M  STY  8   1 DAT   2 DAT   3 DAT   4 DAT   5 DAT   6 DAT   7 DAT   8 DAT
M  STY  8   9 DAT  10 DAT  11 DAT  12 DAT  13 DAT  14 DAT  15 DAT  16 DAT
M  STY  8  17 DAT  18 DAT  19 DAT  20 DAT  21 DAT  22 DAT  23 DAT  24 DAT
M  STY  8  25 DAT  26 DAT  27 DAT  28 DAT  29 DAT  30 DAT  31 DAT  32 DAT
M  STY  8  33 DAT  34 DAT  35 DAT  36 DAT  37 DAT  38 DAT  39 DAT  40 DAT
M  SAL   1  1   1
M  SED   1 [#16&h0]
M  SAL   2  1   2
M  SED   2 [#16&h0]
M  SAL   3  1   3
M  SED   3 [#8&h0]
M  SAL   4  1   4
M  SED   4 [#8&h0]
M  SAL   5  1   5
M  SED   5 [#8&h0]
M  SAL   6  1   6
M  SED   6 [#8&h0]
M  SAL   7  1   7
M  SED   7 [#7&h0]
M  SAL   8  1   8
M  SED   8 [#7&h0]
M  SAL   9  1   9
M  SED   9 [#6&h0]
M  SAL  10  1  10
M  SED  10 [#6&h0]
M  SAL  11  1  11
M  SED  11 [#6&h0]
M  SAL  12  1  12
M  SED  12 [#6&h0]
M  SAL  13  1  13
M  SED  13 [#6&h0]
M  SAL  14  1  14
M  SED  14 [#6&h0]
M  SAL  15  1  15
M  SED  15 [#6&h0]
M  SAL  16  1  16
M  SED  16 [#6&h0]
M  SAL  17  1  17
M  SED  17 [#6&h0]
M  SAL  18  1  18
M  SED  18 [#6&h0]
M  SAL  19  1  19
M  SED  19 [#6&h0]
M  SAL  20  1  20
M  SED  20 [#6&h0]
M  SAL  21  1  21
M  SED  21 [#6&h0]
M  SAL  22  1  22
M  SED  22 [#6&h0]
M  SAL  23  1  23
M  SED  23 [#1&h0]
M  SAL  24  1  24
M  SED  24 [#1&h0]
M  SAL  25  1  25
M  SED  25 [#1&h0]
M  SAL  26  1  26
M  SED  26 [#1&h0]
M  SAL  27  1  27
M  SED  27 [#1&h0]
M  SAL  28  1  28
M  SED  28 [#1&h0]
M  SAL  29  1  29
M  SED  29 [#1&h0]
M  SAL  30  1  30
M  SED  30 [#1&h0]
M  SAL  31  1  31
M  SED  31 [#1&h0]
M  SAL  32  1  32
M  SED  32 [#1&h0]
M  SAL  33  1  33
M  SED  33 [#1&h0]
M  SAL  34  1  34
M  SED  34 [#1&h0]
M  SAL  35  1  35
M  SED  35 [#1&h0]
M  SAL  36  1  36
M  SED  36 [#1&h0]
M  SAL  37  1  37
M  SED  37 [#1&h0]
M  SAL  38  1  38
M  SED  38 [#1&h0]
M  SAL  39  1  39
M  SED  39 [#1&h0]
M  SAL  40  1  40
M  SED  40 [#1&h0]
M  END
>  <Activity>  (141) 
0.01

>  <Mapped(file=2032.csv.activities,property=Cached(PUBCHEM_COMPOUND_CID))>  (141) 
100

>  <MatchIndices>  (141) 
64 

>  <PUBCHEM_ATOM_DEF_STEREO_COUNT>  (141) 
0

>  <PUBCHEM_ATOM_UDEF_STEREO_COUNT>  (141) 
0

>  <PUBCHEM_BONDANNOTATIONS>  (141) 
13  16  8
13  17  8
14  18  8
16  19  8
18  20  8
2  17  8
2  19  8
20  21  8
5  14  8
5  21  8

>  <PUBCHEM_BOND_DEF_STEREO_COUNT>  (141) 
0

>  <PUBCHEM_BOND_UDEF_STEREO_COUNT>  (141) 
0

>  <PUBCHEM_CACTVS_COMPLEXITY>  (141) 
478

>  <PUBCHEM_CACTVS_HBOND_ACCEPTOR>  (141) 
6

>  <PUBCHEM_CACTVS_HBOND_DONOR>  (141) 
1

>  <PUBCHEM_CACTVS_ROTATABLE_BOND>  (141) 
8

>  <PUBCHEM_CACTVS_SUBSKEYS>  (141) 
AAADceBzOABgAAAAAAAAAAAAAAAAASJAAAAAAAAAAAAAAAAB4AAAHgQQQAAACATl0AayBYJABEqMAKlSkHDDCJAkKBBIiBmODMgOJjKktTuHGSjkwBG4qYaYEQIAAAAAAAAAAAAAAAAAAAAAAAAAAAAAAA==

>  <PUBCHEM_CACTVS_TAUTO_COUNT>  (141) 
2

>  <PUBCHEM_CACTVS_TPSA>  (141) 
130

>  <PUBCHEM_COMPONENT_COUNT>  (141) 
1

>  <PUBCHEM_COMPOUND_CANONICALIZED>  (141) 
1

>  <PUBCHEM_COMPOUND_CID>  (141) 
20937322

>  <PUBCHEM_COORDINATE_TYPE>  (141) 
1
5
255

>  <PUBCHEM_EXACT_MASS>  (141) 
342.070799

>  <PUBCHEM_HEAVY_ATOM_COUNT>  (141) 
22

>  <PUBCHEM_ISOTOPIC_ATOM_COUNT>  (141) 
0

>  <PUBCHEM_IUPAC_CAS_NAME>  (141) 
4-[butyl(2-furanylmethyl)sulfamoyl]-2-thiophenecarboxamide

>  <PUBCHEM_IUPAC_INCHI>  (141) 
InChI=1S/C14H18N2O4S2/c1-2-3-6-16(9-11-5-4-7-20-11)22(18,19)12-8-13(14(15)17)21-10-12/h4-5,7-8,10H,2-3,6,9H2,1H3,(H2,15,17)

>  <PUBCHEM_IUPAC_INCHIKEY>  (141) 
WEQZEFUVRWXUQT-UHFFFAOYSA-N

>  <PUBCHEM_IUPAC_NAME>  (141) 
4-[butyl(furan-2-ylmethyl)sulfamoyl]thiophene-2-carboxamide

>  <PUBCHEM_IUPAC_OPENEYE_NAME>  (141) 
4-[butyl(2-furylmethyl)sulfamoyl]thiophene-2-carboxamide

>  <PUBCHEM_IUPAC_SYSTEMATIC_NAME>  (141) 
4-[butyl(furan-2-ylmethyl)sulfamoyl]thiophene-2-carboxamide

>  <PUBCHEM_IUPAC_TRADITIONAL_NAME>  (141) 
4-[butyl(2-furfuryl)sulfamoyl]thiophene-2-carboxamide

>  <PUBCHEM_MOLECULAR_FORMULA>  (141) 
C14H18N2O4S2

>  <PUBCHEM_MOLECULAR_WEIGHT>  (141) 
342.43372

>  <PUBCHEM_MONOISOTOPIC_WEIGHT>  (141) 
342.070799

>  <PUBCHEM_OPENEYE_CAN_SMILES>  (141) 
CCCCN(CC1=CC=CO1)S(=O)(=O)C2=CSC(=C2)C(=O)N

>  <PUBCHEM_OPENEYE_ISO_SMILES>  (141) 
CCCCN(CC1=CC=CO1)S(=O)(=O)C2=CSC(=C2)C(=O)N

>  <PUBCHEM_TOTAL_CHARGE>  (141) 
0

>  <PUBCHEM_XLOGP3_AA>  (141) 
1.8

$$$$
Largest isolated from Written by BCL::WriteToMDL,2987440
     RDKit          2D

 38 41  0 38  0  0  0  0  0  0999 V2000
   -1.3391    0.0014    0.0000 N   0  0  0  0  0  0  0  0  0  0  0  0
   -3.5822   -0.9256    0.0000 N   0  0  0  0  0  0  0  0  0  0  0  0
   -1.5510   -2.6632    0.0000 C   0  0  0  0  0  0  0  0  0  0  0  0
   -1.4867   -4.1618    0.0000 C   0  0  0  0  0  0  0  0  0  0  0  0
   -2.8167   -3.4681    0.0000 C   0  0  0  0  0  0  0  0  0  0  0  0
   -2.1239   -1.2769    0.0000 C   0  0  0  0  0  0  0  0  0  0  0  0
   -2.3124    1.1428    0.0000 C   0  0  0  0  0  0  0  0  0  0  0  0
    0.1564    0.1179    0.0000 C   0  0  0  0  0  0  0  0  0  0  0  0
   -3.6987    0.5699    0.0000 C   0  0  0  0  0  0  0  0  0  0  0  0
    1.6518    0.2344    0.0000 C   0  0  0  0  0  0  0  0  0  0  0  0
   -2.1154    2.6298    0.0000 C   0  0  0  0  0  0  0  0  0  0  0  0
   -4.8880    1.4840    0.0000 C   0  0  0  0  0  0  0  0  0  0  0  0
    3.1473    0.3509    0.0000 C   0  0  0  0  0  0  0  0  0  0  0  0
   -3.3047    3.5439    0.0000 C   0  0  0  0  0  0  0  0  0  0  0  0
   -4.6910    2.9710    0.0000 C   0  0  0  0  0  0  0  0  0  0  0  0
    3.9959   -0.8859    0.0000 C   0  0  0  0  0  0  0  0  0  0  0  0
    3.7941    1.7043    0.0000 C   0  0  0  0  0  0  0  0  0  0  0  0
    5.4914   -0.7694    0.0000 C   0  0  0  0  0  0  0  0  0  0  0  0
    5.2896    1.8208    0.0000 C   0  0  0  0  0  0  0  0  0  0  0  0
    6.1382    0.5839    0.0000 C   0  0  0  0  0  0  0  0  0  0  0  0
   -0.0863   -2.3397    0.0000 H   0  0  0  0  0  0  0  0  0  0  0  0
    0.0003   -4.3588    0.0000 H   0  0  0  0  0  0  0  0  0  0  0  0
   -1.9389   -5.5920    0.0000 H   0  0  0  0  0  0  0  0  0  0  0  0
   -3.7308   -4.6574    0.0000 H   0  0  0  0  0  0  0  0  0  0  0  0
   -3.8292   -2.3614    0.0000 H   0  0  0  0  0  0  0  0  0  0  0  0
    0.2728   -1.3775    0.0000 H   0  0  0  0  0  0  0  0  0  0  0  0
    0.0399    1.6134    0.0000 H   0  0  0  0  0  0  0  0  0  0  0  0
    1.5353    1.7299    0.0000 H   0  0  0  0  0  0  0  0  0  0  0  0
    1.7683   -1.2610    0.0000 H   0  0  0  0  0  0  0  0  0  0  0  0
   -0.7291    3.2028    0.0000 H   0  0  0  0  0  0  0  0  0  0  0  0
   -6.2742    0.9111    0.0000 H   0  0  0  0  0  0  0  0  0  0  0  0
   -3.1077    5.0309    0.0000 H   0  0  0  0  0  0  0  0  0  0  0  0
   -5.8803    3.8851    0.0000 H   0  0  0  0  0  0  0  0  0  0  0  0
    3.3491   -2.2393    0.0000 H   0  0  0  0  0  0  0  0  0  0  0  0
    2.9455    2.9412    0.0000 H   0  0  0  0  0  0  0  0  0  0  0  0
    6.3400   -2.0063    0.0000 H   0  0  0  0  0  0  0  0  0  0  0  0
    5.9365    3.1742    0.0000 H   0  0  0  0  0  0  0  0  0  0  0  0
    7.6337    0.7004    0.0000 H   0  0  0  0  0  0  0  0  0  0  0  0
  1  6  1  0
  1  7  1  0
  1  8  1  0
  2  6  2  0
  2  9  1  0
  3  4  1  0
  3  5  1  0
  3  6  1  0
  3 21  1  0
  4  5  1  0
  4 22  1  0
  4 23  1  0
  5 24  1  0
  5 25  1  0
  7  9  2  0
  7 11  1  0
  8 10  1  0
  8 26  1  0
  8 27  1  0
  9 12  1  0
 10 13  1  0
 10 28  1  0
 10 29  1  0
 11 14  2  0
 11 30  1  0
 12 15  2  0
 12 31  1  0
 13 16  2  0
 13 17  1  0
 14 15  1  0
 14 32  1  0
 15 33  1  0
 16 18  1  0
 16 34  1  0
 17 19  2  0
 17 35  1  0
 18 20  2  0
 18 36  1  0
 19 20  1  0
 19 37  1  0
 20 38  1  0
M  STY  8   1 DAT   2 DAT   3 DAT   4 DAT   5 DAT   6 DAT   7 DAT   8 DAT
M  STY  8   9 DAT  10 DAT  11 DAT  12 DAT  13 DAT  14 DAT  15 DAT  16 DAT
M  STY  8  17 DAT  18 DAT  19 DAT  20 DAT  21 DAT  22 DAT  23 DAT  24 DAT
M  STY  8  25 DAT  26 DAT  27 DAT  28 DAT  29 DAT  30 DAT  31 DAT  32 DAT
M  STY  6  33 DAT  34 DAT  35 DAT  36 DAT  37 DAT  38 DAT
M  SAL   1  1   1
M  SED   1 [#7&h0]
M  SAL   2  1   2
M  SED   2 [#7&h0]
M  SAL   3  1   3
M  SED   3 [#6&h0]
M  SAL   4  1   4
M  SED   4 [#6&h0]
M  SAL   5  1   5
M  SED   5 [#6&h0]
M  SAL   6  1   6
M  SED   6 [#6&h0]
M  SAL   7  1   7
M  SED   7 [#6&h0]
M  SAL   8  1   8
M  SED   8 [#6&h0]
M  SAL   9  1   9
M  SED   9 [#6&h0]
M  SAL  10  1  10
M  SED  10 [#6&h0]
M  SAL  11  1  11
M  SED  11 [#6&h0]
M  SAL  12  1  12
M  SED  12 [#6&h0]
M  SAL  13  1  13
M  SED  13 [#6&h0]
M  SAL  14  1  14
M  SED  14 [#6&h0]
M  SAL  15  1  15
M  SED  15 [#6&h0]
M  SAL  16  1  16
M  SED  16 [#6&h0]
M  SAL  17  1  17
M  SED  17 [#6&h0]
M  SAL  18  1  18
M  SED  18 [#6&h0]
M  SAL  19  1  19
M  SED  19 [#6&h0]
M  SAL  20  1  20
M  SED  20 [#6&h0]
M  SAL  21  1  21
M  SED  21 [#1&h0]
M  SAL  22  1  22
M  SED  22 [#1&h0]
M  SAL  23  1  23
M  SED  23 [#1&h0]
M  SAL  24  1  24
M  SED  24 [#1&h0]
M  SAL  25  1  25
M  SED  25 [#1&h0]
M  SAL  26  1  26
M  SED  26 [#1&h0]
M  SAL  27  1  27
M  SED  27 [#1&h0]
M  SAL  28  1  28
M  SED  28 [#1&h0]
M  SAL  29  1  29
M  SED  29 [#1&h0]
M  SAL  30  1  30
M  SED  30 [#1&h0]
M  SAL  31  1  31
M  SED  31 [#1&h0]
M  SAL  32  1  32
M  SED  32 [#1&h0]
M  SAL  33  1  33
M  SED  33 [#1&h0]
M  SAL  34  1  34
M  SED  34 [#1&h0]
M  SAL  35  1  35
M  SED  35 [#1&h0]
M  SAL  36  1  36
M  SED  36 [#1&h0]
M  SAL  37  1  37
M  SED  37 [#1&h0]
M  SAL  38  1  38
M  SED  38 [#1&h0]
M  END
>  <Activity>  (142) 
0.01

>  <Mapped(file=2032.csv.activities,property=Cached(PUBCHEM_COMPOUND_CID))>  (142) 
100

>  <MatchIndices>  (142) 
71 

>  <PUBCHEM_ATOM_DEF_STEREO_COUNT>  (142) 
0

>  <PUBCHEM_ATOM_UDEF_STEREO_COUNT>  (142) 
0

>  <PUBCHEM_BONDANNOTATIONS>  (142) 
1  6  8
1  7  8
11  14  8
12  15  8
13  16  8
13  17  8
14  15  8
16  18  8
17  19  8
18  20  8
19  20  8
2  6  8
2  9  8
7  11  8
7  9  8
9  12  8

>  <PUBCHEM_BOND_DEF_STEREO_COUNT>  (142) 
0

>  <PUBCHEM_BOND_UDEF_STEREO_COUNT>  (142) 
0

>  <PUBCHEM_CACTVS_COMPLEXITY>  (142) 
319

>  <PUBCHEM_CACTVS_HBOND_ACCEPTOR>  (142) 
0

>  <PUBCHEM_CACTVS_HBOND_DONOR>  (142) 
0

>  <PUBCHEM_CACTVS_ROTATABLE_BOND>  (142) 
4

>  <PUBCHEM_CACTVS_SUBSKEYS>  (142) 
AAADceB7AAAAAAAAAAAAAAAAGAAAAWAAAAAwYAAAAAAAAFgB9AAAHAAAAAAADQjBHwQx0LcMEACgAyZiZACCgC0hEqAJ2CA4dJiIaKLAmZGUIAhogALIyCcQgIAOAAAAAAAAACAAAAAAAAAAQAAAAAAAAA==

>  <PUBCHEM_CACTVS_TAUTO_COUNT>  (142) 
1

>  <PUBCHEM_CACTVS_TPSA>  (142) 
17.8

>  <PUBCHEM_COMPONENT_COUNT>  (142) 
1

>  <PUBCHEM_COMPOUND_CANONICALIZED>  (142) 
1

>  <PUBCHEM_COMPOUND_CID>  (142) 
2987440

>  <PUBCHEM_COORDINATE_TYPE>  (142) 
1
5
255

>  <PUBCHEM_EXACT_MASS>  (142) 
262.146999

>  <PUBCHEM_HEAVY_ATOM_COUNT>  (142) 
20

>  <PUBCHEM_ISOTOPIC_ATOM_COUNT>  (142) 
0

>  <PUBCHEM_IUPAC_CAS_NAME>  (142) 
2-cyclopropyl-1-(2-phenylethyl)benzimidazole

>  <PUBCHEM_IUPAC_INCHI>  (142) 
InChI=1S/C18H18N2/c1-2-6-14(7-3-1)12-13-20-17-9-5-4-8-16(17)19-18(20)15-10-11-15/h1-9,15H,10-13H2

>  <PUBCHEM_IUPAC_INCHIKEY>  (142) 
ODBCNXRWJIPLEA-UHFFFAOYSA-N

>  <PUBCHEM_IUPAC_NAME>  (142) 
2-cyclopropyl-1-(2-phenylethyl)benzimidazole

>  <PUBCHEM_IUPAC_OPENEYE_NAME>  (142) 
2-cyclopropyl-1-(2-phenylethyl)benzimidazole

>  <PUBCHEM_IUPAC_SYSTEMATIC_NAME>  (142) 
2-cyclopropyl-1-(2-phenylethyl)benzimidazole

>  <PUBCHEM_IUPAC_TRADITIONAL_NAME>  (142) 
2-cyclopropyl-1-phenethyl-benzimidazole

>  <PUBCHEM_MOLECULAR_FORMULA>  (142) 
C18H18N2

>  <PUBCHEM_MOLECULAR_WEIGHT>  (142) 
262.34892

>  <PUBCHEM_MONOISOTOPIC_WEIGHT>  (142) 
262.146999

>  <PUBCHEM_OPENEYE_CAN_SMILES>  (142) 
C1CC1C2=NC3=CC=CC=C3N2CCC4=CC=CC=C4

>  <PUBCHEM_OPENEYE_ISO_SMILES>  (142) 
C1CC1C2=NC3=CC=CC=C3N2CCC4=CC=CC=C4

>  <PUBCHEM_TOTAL_CHARGE>  (142) 
0

>  <PUBCHEM_XLOGP3_AA>  (142) 
3.9

$$$$
Largest isolated from Written by BCL::WriteToMDL,2831789
     RDKit          2D

 37 39  0 37  0  0  0  0  0  0999 V2000
    6.5631   -2.6879    0.0000 Br  0  0  0  0  0  0  0  0  0  0  0  0
   -0.8828    1.1431    0.0000 N   0  0  0  0  0  0  0  0  0  0  0  0
    0.7994   -1.0205    0.0000 N   0  0  0  0  0  0  0  0  0  0  0  0
    4.0438    2.0978    0.0000 N   0  0  0  0  0  0  0  0  0  0  0  0
   -0.6189    2.6197    0.0000 C   0  0  0  0  0  0  0  0  0  0  0  0
    0.8670    2.8249    0.0000 C   0  0  0  0  0  0  0  0  0  0  0  0
    1.5214    1.4752    0.0000 C   0  0  0  0  0  0  0  0  0  0  0  0
    0.4400    0.4358    0.0000 C   0  0  0  0  0  0  0  0  0  0  0  0
   -2.2325    0.4887    0.0000 C   0  0  0  0  0  0  0  0  0  0  0  0
   -3.5823   -0.1657    0.0000 C   0  0  0  0  0  0  0  0  0  0  0  0
    2.9623    1.0584    0.0000 C   0  0  0  0  0  0  0  0  0  0  0  0
    3.3218   -0.3979    0.0000 C   0  0  0  0  0  0  0  0  0  0  0  0
    2.2403   -1.4374    0.0000 C   0  0  0  0  0  0  0  0  0  0  0  0
   -4.9320   -0.8201    0.0000 C   0  0  0  0  0  0  0  0  0  0  0  0
    4.7627   -0.8148    0.0000 C   0  0  0  0  0  0  0  0  0  0  0  0
    2.5998   -2.8937    0.0000 C   0  0  0  0  0  0  0  0  0  0  0  0
   -6.2817   -1.4745    0.0000 C   0  0  0  0  0  0  0  0  0  0  0  0
    5.1222   -2.2711    0.0000 C   0  0  0  0  0  0  0  0  0  0  0  0
    4.0407   -3.3105    0.0000 C   0  0  0  0  0  0  0  0  0  0  0  0
   -0.6677    4.1189    0.0000 H   0  0  0  0  0  0  0  0  0  0  0  0
   -2.1150    2.7278    0.0000 H   0  0  0  0  0  0  0  0  0  0  0  0
    2.2778    3.3347    0.0000 H   0  0  0  0  0  0  0  0  0  0  0  0
    0.5076    4.2812    0.0000 H   0  0  0  0  0  0  0  0  0  0  0  0
   -2.8869    1.8384    0.0000 H   0  0  0  0  0  0  0  0  0  0  0  0
   -1.5782   -0.8610    0.0000 H   0  0  0  0  0  0  0  0  0  0  0  0
   -2.9279   -1.5154    0.0000 H   0  0  0  0  0  0  0  0  0  0  0  0
   -4.2367    1.1840    0.0000 H   0  0  0  0  0  0  0  0  0  0  0  0
   -5.5864    0.5296    0.0000 H   0  0  0  0  0  0  0  0  0  0  0  0
   -4.2776   -2.1698    0.0000 H   0  0  0  0  0  0  0  0  0  0  0  0
    5.8442    0.2247    0.0000 H   0  0  0  0  0  0  0  0  0  0  0  0
    5.4847    1.6810    0.0000 H   0  0  0  0  0  0  0  0  0  0  0  0
    3.6843    3.5541    0.0000 H   0  0  0  0  0  0  0  0  0  0  0  0
    1.5183   -3.9331    0.0000 H   0  0  0  0  0  0  0  0  0  0  0  0
   -5.6274   -2.8242    0.0000 H   0  0  0  0  0  0  0  0  0  0  0  0
   -6.9361   -0.1247    0.0000 H   0  0  0  0  0  0  0  0  0  0  0  0
   -7.6315   -2.1289    0.0000 H   0  0  0  0  0  0  0  0  0  0  0  0
    4.4002   -4.7668    0.0000 H   0  0  0  0  0  0  0  0  0  0  0  0
  1 18  1  0
  2  5  1  0
  2  8  1  0
  2  9  1  0
  3  8  1  0
  3 13  2  0
  4 11  1  0
  4 31  1  0
  4 32  1  0
  5  6  1  0
  5 20  1  0
  5 21  1  0
  6  7  1  0
  6 22  1  0
  6 23  1  0
  7  8  2  0
  7 11  1  0
  9 10  1  0
  9 24  1  0
  9 25  1  0
 10 14  1  0
 10 26  1  0
 10 27  1  0
 11 12  2  0
 12 13  1  0
 12 15  1  0
 13 16  1  0
 14 17  1  0
 14 28  1  0
 14 29  1  0
 15 18  2  0
 15 30  1  0
 16 19  2  0
 16 33  1  0
 17 34  1  0
 17 35  1  0
 17 36  1  0
 18 19  1  0
 19 37  1  0
M  STY  8   1 DAT   2 DAT   3 DAT   4 DAT   5 DAT   6 DAT   7 DAT   8 DAT
M  STY  8   9 DAT  10 DAT  11 DAT  12 DAT  13 DAT  14 DAT  15 DAT  16 DAT
M  STY  8  17 DAT  18 DAT  19 DAT  20 DAT  21 DAT  22 DAT  23 DAT  24 DAT
M  STY  8  25 DAT  26 DAT  27 DAT  28 DAT  29 DAT  30 DAT  31 DAT  32 DAT
M  STY  5  33 DAT  34 DAT  35 DAT  36 DAT  37 DAT
M  SAL   1  1   1
M  SED   1 [#35&h0]
M  SAL   2  1   2
M  SED   2 [#7&h0]
M  SAL   3  1   3
M  SED   3 [#7&h0]
M  SAL   4  1   4
M  SED   4 [#7&h0]
M  SAL   5  1   5
M  SED   5 [#6&h0]
M  SAL   6  1   6
M  SED   6 [#6&h0]
M  SAL   7  1   7
M  SED   7 [#6&h0]
M  SAL   8  1   8
M  SED   8 [#6&h0]
M  SAL   9  1   9
M  SED   9 [#6&h0]
M  SAL  10  1  10
M  SED  10 [#6&h0]
M  SAL  11  1  11
M  SED  11 [#6&h0]
M  SAL  12  1  12
M  SED  12 [#6&h0]
M  SAL  13  1  13
M  SED  13 [#6&h0]
M  SAL  14  1  14
M  SED  14 [#6&h0]
M  SAL  15  1  15
M  SED  15 [#6&h0]
M  SAL  16  1  16
M  SED  16 [#6&h0]
M  SAL  17  1  17
M  SED  17 [#6&h0]
M  SAL  18  1  18
M  SED  18 [#6&h0]
M  SAL  19  1  19
M  SED  19 [#6&h0]
M  SAL  20  1  20
M  SED  20 [#1&h0]
M  SAL  21  1  21
M  SED  21 [#1&h0]
M  SAL  22  1  22
M  SED  22 [#1&h0]
M  SAL  23  1  23
M  SED  23 [#1&h0]
M  SAL  24  1  24
M  SED  24 [#1&h0]
M  SAL  25  1  25
M  SED  25 [#1&h0]
M  SAL  26  1  26
M  SED  26 [#1&h0]
M  SAL  27  1  27
M  SED  27 [#1&h0]
M  SAL  28  1  28
M  SED  28 [#1&h0]
M  SAL  29  1  29
M  SED  29 [#1&h0]
M  SAL  30  1  30
M  SED  30 [#1&h0]
M  SAL  31  1  31
M  SED  31 [#1&h0]
M  SAL  32  1  32
M  SED  32 [#1&h0]
M  SAL  33  1  33
M  SED  33 [#1&h0]
M  SAL  34  1  34
M  SED  34 [#1&h0]
M  SAL  35  1  35
M  SED  35 [#1&h0]
M  SAL  36  1  36
M  SED  36 [#1&h0]
M  SAL  37  1  37
M  SED  37 [#1&h0]
M  END
>  <Activity>  (143) 
0.01

>  <Mapped(file=2032.csv.activities,property=Cached(PUBCHEM_COMPOUND_CID))>  (143) 
100

>  <MatchIndices>  (143) 
178 

>  <PUBCHEM_ATOM_DEF_STEREO_COUNT>  (143) 
0

>  <PUBCHEM_ATOM_UDEF_STEREO_COUNT>  (143) 
0

>  <PUBCHEM_BONDANNOTATIONS>  (143) 
12  13  8
13  14  8
13  16  8
14  17  8
16  19  8
17  20  8
19  20  8
4  14  8
4  9  8
8  12  8
8  9  8

>  <PUBCHEM_BOND_DEF_STEREO_COUNT>  (143) 
0

>  <PUBCHEM_BOND_UDEF_STEREO_COUNT>  (143) 
0

>  <PUBCHEM_CACTVS_COMPLEXITY>  (143) 
312

>  <PUBCHEM_CACTVS_HBOND_ACCEPTOR>  (143) 
2

>  <PUBCHEM_CACTVS_HBOND_DONOR>  (143) 
2

>  <PUBCHEM_CACTVS_ROTATABLE_BOND>  (143) 
3

>  <PUBCHEM_CACTVS_SUBSKEYS>  (143) 
AAADceBzAAAEEAAAAAAAAAAAAAAAAWAAAAA8QAAAAAAAAFix8AAAHABQAAABrAjBHgQz8PNIEACgAyZiZACCgCkhAiQJmCA4ZLiIIOLA2dGEJAhogALIyjcQgMAOAAAgEAACAAAAAEAgAAQAAAAAAAAAAA==

>  <PUBCHEM_CACTVS_TAUTO_COUNT>  (143) 
3

>  <PUBCHEM_CACTVS_TPSA>  (143) 
42.2

>  <PUBCHEM_COMPONENT_COUNT>  (143) 
2

>  <PUBCHEM_COMPOUND_CANONICALIZED>  (143) 
1

>  <PUBCHEM_COMPOUND_CID>  (143) 
2831789

>  <PUBCHEM_COORDINATE_TYPE>  (143) 
1
5
255

>  <PUBCHEM_EXACT_MASS>  (143) 
355.045087

>  <PUBCHEM_HEAVY_ATOM_COUNT>  (143) 
20

>  <PUBCHEM_ISOTOPIC_ATOM_COUNT>  (143) 
0

>  <PUBCHEM_IUPAC_CAS_NAME>  (143) 
6-bromo-1-butyl-2,3-dihydropyrrolo[2,3-b]quinolin-4-amine hydrochloride

>  <PUBCHEM_IUPAC_INCHI>  (143) 
InChI=1S/C15H18BrN3.ClH/c1-2-3-7-19-8-6-11-14(17)12-9-10(16)4-5-13(12)18-15(11)19;/h4-5,9H,2-3,6-8H2,1H3,(H2,17,18);1H

>  <PUBCHEM_IUPAC_INCHIKEY>  (143) 
ROSLWENMJSYYGU-UHFFFAOYSA-N

>  <PUBCHEM_IUPAC_NAME>  (143) 
6-bromo-1-butyl-2,3-dihydropyrrolo[2,3-b]quinolin-4-amine hydrochloride

>  <PUBCHEM_IUPAC_OPENEYE_NAME>  (143) 
6-bromo-1-butyl-2,3-dihydropyrrolo[2,3-b]quinolin-4-amine hydrochloride

>  <PUBCHEM_IUPAC_SYSTEMATIC_NAME>  (143) 
6-bromanyl-1-butyl-2,3-dihydropyrrolo[2,3-b]quinolin-4-amine hydrochloride

>  <PUBCHEM_IUPAC_TRADITIONAL_NAME>  (143) 
(6-bromo-1-butyl-2,3-dihydropyrrolo[2,3-b]quinolin-4-yl)amine hydrochloride

>  <PUBCHEM_MOLECULAR_FORMULA>  (143) 
C15H19BrClN3

>  <PUBCHEM_MOLECULAR_WEIGHT>  (143) 
356.68846

>  <PUBCHEM_MONOISOTOPIC_WEIGHT>  (143) 
355.045087

>  <PUBCHEM_OPENEYE_CAN_SMILES>  (143) 
CCCCN1CCC2=C(C3=C(C=CC(=C3)Br)N=C21)N.Cl

>  <PUBCHEM_OPENEYE_ISO_SMILES>  (143) 
CCCCN1CCC2=C(C3=C(C=CC(=C3)Br)N=C21)N.Cl

>  <PUBCHEM_TOTAL_CHARGE>  (143) 
0

$$$$
Largest isolated from Written by BCL::WriteToMDL,666977
     RDKit          2D

 52 55  0 52  0  0  0  0  0  0999 V2000
   -6.4854    2.5276    0.0000 O   0  0  0  0  0  0  0  0  0  0  0  0
    0.0674    0.4513    0.0000 N   0  0  0  0  0  0  0  0  0  0  0  0
    3.0470    0.1019    0.0000 N   0  0  0  0  0  0  0  0  0  0  0  0
   -2.3186   -0.5769    0.0000 N   0  0  0  0  0  0  0  0  0  0  0  0
   -2.0160    2.0035    0.0000 N   0  0  0  0  0  0  0  0  0  0  0  0
    0.6610   -0.9262    0.0000 C   0  0  0  0  0  0  0  0  0  0  0  0
    0.9636    1.6542    0.0000 C   0  0  0  0  0  0  0  0  0  0  0  0
    2.1508   -1.1009    0.0000 C   0  0  0  0  0  0  0  0  0  0  0  0
    2.4534    1.4795    0.0000 C   0  0  0  0  0  0  0  0  0  0  0  0
   -6.1943   -1.4303    0.0000 C   0  0  0  0  0  0  0  0  0  0  0  0
   -4.7045   -1.6050    0.0000 C   0  0  0  0  0  0  0  0  0  0  0  0
   -6.7879   -0.0528    0.0000 C   0  0  0  0  0  0  0  0  0  0  0  0
   -3.8083   -0.4022    0.0000 C   0  0  0  0  0  0  0  0  0  0  0  0
   -4.4020    0.9754    0.0000 C   0  0  0  0  0  0  0  0  0  0  0  0
   -1.4224    0.6260    0.0000 C   0  0  0  0  0  0  0  0  0  0  0  0
    4.5368   -0.0728    0.0000 C   0  0  0  0  0  0  0  0  0  0  0  0
   -5.8918    1.1501    0.0000 C   0  0  0  0  0  0  0  0  0  0  0  0
   -6.1077   -2.9278    0.0000 C   0  0  0  0  0  0  0  0  0  0  0  0
   -3.5058    2.1782    0.0000 C   0  0  0  0  0  0  0  0  0  0  0  0
    6.0266   -0.2475    0.0000 C   0  0  0  0  0  0  0  0  0  0  0  0
   -4.0994    3.5558    0.0000 C   0  0  0  0  0  0  0  0  0  0  0  0
    6.6202   -1.6250    0.0000 C   0  0  0  0  0  0  0  0  0  0  0  0
    6.9228    0.9554    0.0000 C   0  0  0  0  0  0  0  0  0  0  0  0
    8.1100   -1.7997    0.0000 C   0  0  0  0  0  0  0  0  0  0  0  0
    8.4126    0.7807    0.0000 C   0  0  0  0  0  0  0  0  0  0  0  0
    9.0062   -0.5968    0.0000 C   0  0  0  0  0  0  0  0  0  0  0  0
   -0.3766    2.3279    0.0000 H   0  0  0  0  0  0  0  0  0  0  0  0
    1.3943    3.0910    0.0000 H   0  0  0  0  0  0  0  0  0  0  0  0
    0.7477   -2.4237    0.0000 H   0  0  0  0  0  0  0  0  0  0  0  0
   -0.7987   -1.2716    0.0000 H   0  0  0  0  0  0  0  0  0  0  0  0
    3.3989   -1.9330    0.0000 H   0  0  0  0  0  0  0  0  0  0  0  0
    1.7201   -2.5378    0.0000 H   0  0  0  0  0  0  0  0  0  0  0  0
    2.3667    2.9770    0.0000 H   0  0  0  0  0  0  0  0  0  0  0  0
    3.8601    2.0002    0.0000 H   0  0  0  0  0  0  0  0  0  0  0  0
   -7.6540   -1.7757    0.0000 H   0  0  0  0  0  0  0  0  0  0  0  0
   -4.8387   -2.3908    0.0000 H   0  0  0  0  0  0  0  0  0  0  0  0
   -3.3643   -2.2787    0.0000 H   0  0  0  0  0  0  0  0  0  0  0  0
   -7.8169    1.0387    0.0000 H   0  0  0  0  0  0  0  0  0  0  0  0
   -8.0415   -0.8766    0.0000 H   0  0  0  0  0  0  0  0  0  0  0  0
    4.5450   -1.5727    0.0000 H   0  0  0  0  0  0  0  0  0  0  0  0
    4.8918    1.3846    0.0000 H   0  0  0  0  0  0  0  0  0  0  0  0
   -7.6052   -3.0145    0.0000 H   0  0  0  0  0  0  0  0  0  0  0  0
   -5.3122   -2.9791    0.0000 H   0  0  0  0  0  0  0  0  0  0  0  0
   -6.0210   -4.4253    0.0000 H   0  0  0  0  0  0  0  0  0  0  0  0
   -2.7218    4.1494    0.0000 H   0  0  0  0  0  0  0  0  0  0  0  0
   -5.4769    2.9622    0.0000 H   0  0  0  0  0  0  0  0  0  0  0  0
   -4.6930    4.9333    0.0000 H   0  0  0  0  0  0  0  0  0  0  0  0
    5.7240   -2.8279    0.0000 H   0  0  0  0  0  0  0  0  0  0  0  0
    6.3292    2.3329    0.0000 H   0  0  0  0  0  0  0  0  0  0  0  0
    8.7036   -3.1772    0.0000 H   0  0  0  0  0  0  0  0  0  0  0  0
    9.3088    1.9836    0.0000 H   0  0  0  0  0  0  0  0  0  0  0  0
   10.4960   -0.7715    0.0000 H   0  0  0  0  0  0  0  0  0  0  0  0
  1 17  2  0
  2  6  1  0
  2  7  1  0
  2 15  1  0
  3  8  1  0
  3  9  1  0
  3 16  1  0
  4 13  2  0
  4 15  1  0
  5 15  2  0
  5 19  1  0
  6  8  1  0
  6 29  1  0
  6 30  1  0
  7  9  1  0
  7 27  1  0
  7 28  1  0
  8 31  1  0
  8 32  1  0
  9 33  1  0
  9 34  1  0
 10 11  1  0
 10 12  1  0
 10 18  1  0
 10 35  1  1
 11 13  1  0
 11 36  1  0
 11 37  1  0
 12 17  1  0
 12 38  1  0
 12 39  1  0
 13 14  1  0
 14 17  1  0
 14 19  2  0
 16 20  1  0
 16 40  1  0
 16 41  1  0
 18 42  1  0
 18 43  1  0
 18 44  1  0
 19 21  1  0
 20 22  2  0
 20 23  1  0
 21 45  1  0
 21 46  1  0
 21 47  1  0
 22 24  1  0
 22 48  1  0
 23 25  2  0
 23 49  1  0
 24 26  2  0
 24 50  1  0
 25 26  1  0
 25 51  1  0
 26 52  1  0
M  STY  8   1 DAT   2 DAT   3 DAT   4 DAT   5 DAT   6 DAT   7 DAT   8 DAT
M  STY  8   9 DAT  10 DAT  11 DAT  12 DAT  13 DAT  14 DAT  15 DAT  16 DAT
M  STY  8  17 DAT  18 DAT  19 DAT  20 DAT  21 DAT  22 DAT  23 DAT  24 DAT
M  STY  8  25 DAT  26 DAT  27 DAT  28 DAT  29 DAT  30 DAT  31 DAT  32 DAT
M  STY  8  33 DAT  34 DAT  35 DAT  36 DAT  37 DAT  38 DAT  39 DAT  40 DAT
M  STY  8  41 DAT  42 DAT  43 DAT  44 DAT  45 DAT  46 DAT  47 DAT  48 DAT
M  STY  4  49 DAT  50 DAT  51 DAT  52 DAT
M  SAL   1  1   1
M  SED   1 [#8&h0]
M  SAL   2  1   2
M  SED   2 [#7&h0]
M  SAL   3  1   3
M  SED   3 [#7&h0]
M  SAL   4  1   4
M  SED   4 [#7&h0]
M  SAL   5  1   5
M  SED   5 [#7&h0]
M  SAL   6  1   6
M  SED   6 [#6&h0]
M  SAL   7  1   7
M  SED   7 [#6&h0]
M  SAL   8  1   8
M  SED   8 [#6&h0]
M  SAL   9  1   9
M  SED   9 [#6&h0]
M  SAL  10  1  10
M  SED  10 [#6&h0]
M  SAL  11  1  11
M  SED  11 [#6&h0]
M  SAL  12  1  12
M  SED  12 [#6&h0]
M  SAL  13  1  13
M  SED  13 [#6&h0]
M  SAL  14  1  14
M  SED  14 [#6&h0]
M  SAL  15  1  15
M  SED  15 [#6&h0]
M  SAL  16  1  16
M  SED  16 [#6&h0]
M  SAL  17  1  17
M  SED  17 [#6&h0]
M  SAL  18  1  18
M  SED  18 [#6&h0]
M  SAL  19  1  19
M  SED  19 [#6&h0]
M  SAL  20  1  20
M  SED  20 [#6&h0]
M  SAL  21  1  21
M  SED  21 [#6&h0]
M  SAL  22  1  22
M  SED  22 [#6&h0]
M  SAL  23  1  23
M  SED  23 [#6&h0]
M  SAL  24  1  24
M  SED  24 [#6&h0]
M  SAL  25  1  25
M  SED  25 [#6&h0]
M  SAL  26  1  26
M  SED  26 [#6&h0]
M  SAL  27  1  27
M  SED  27 [#1&h0]
M  SAL  28  1  28
M  SED  28 [#1&h0]
M  SAL  29  1  29
M  SED  29 [#1&h0]
M  SAL  30  1  30
M  SED  30 [#1&h0]
M  SAL  31  1  31
M  SED  31 [#1&h0]
M  SAL  32  1  32
M  SED  32 [#1&h0]
M  SAL  33  1  33
M  SED  33 [#1&h0]
M  SAL  34  1  34
M  SED  34 [#1&h0]
M  SAL  35  1  35
M  SED  35 [#1&h0]
M  SAL  36  1  36
M  SED  36 [#1&h0]
M  SAL  37  1  37
M  SED  37 [#1&h0]
M  SAL  38  1  38
M  SED  38 [#1&h0]
M  SAL  39  1  39
M  SED  39 [#1&h0]
M  SAL  40  1  40
M  SED  40 [#1&h0]
M  SAL  41  1  41
M  SED  41 [#1&h0]
M  SAL  42  1  42
M  SED  42 [#1&h0]
M  SAL  43  1  43
M  SED  43 [#1&h0]
M  SAL  44  1  44
M  SED  44 [#1&h0]
M  SAL  45  1  45
M  SED  45 [#1&h0]
M  SAL  46  1  46
M  SED  46 [#1&h0]
M  SAL  47  1  47
M  SED  47 [#1&h0]
M  SAL  48  1  48
M  SED  48 [#1&h0]
M  SAL  49  1  49
M  SED  49 [#1&h0]
M  SAL  50  1  50
M  SED  50 [#1&h0]
M  SAL  51  1  51
M  SED  51 [#1&h0]
M  SAL  52  1  52
M  SED  52 [#1&h0]
M  END
>  <Activity>  (144) 
0.01

>  <Mapped(file=2032.csv.activities,property=Cached(PUBCHEM_COMPOUND_CID))>  (144) 
100

>  <MatchIndices>  (144) 
193 

>  <PUBCHEM_ATOM_DEF_STEREO_COUNT>  (144) 
0

>  <PUBCHEM_ATOM_UDEF_STEREO_COUNT>  (144) 
1

>  <PUBCHEM_BONDANNOTATIONS>  (144) 
10  35  3
13  14  8
14  19  8
20  22  8
20  23  8
22  24  8
23  25  8
24  26  8
25  26  8
4  13  8
4  15  8
5  15  8
5  19  8

>  <PUBCHEM_BOND_DEF_STEREO_COUNT>  (144) 
0

>  <PUBCHEM_BOND_UDEF_STEREO_COUNT>  (144) 
0

>  <PUBCHEM_CACTVS_COMPLEXITY>  (144) 
484

>  <PUBCHEM_CACTVS_HBOND_ACCEPTOR>  (144) 
2

>  <PUBCHEM_CACTVS_HBOND_DONOR>  (144) 
0

>  <PUBCHEM_CACTVS_ROTATABLE_BOND>  (144) 
3

>  <PUBCHEM_CACTVS_SUBSKEYS>  (144) 
AAADceB7oAAAAAAAAAAAAAAAAAAAAAAAAAA8eIEAAAAAAACxwAAAHgAAAAAADQzBngQzkJcIEACoA6RyZACCgCklAKAJmCE4RNiIaDrA2dGUJYhogALIyWcYicCeAAAAAAAAAACAAACAAAQAAAAAAAAAAA==

>  <PUBCHEM_CACTVS_TAUTO_COUNT>  (144) 
2

>  <PUBCHEM_CACTVS_TPSA>  (144) 
49.3

>  <PUBCHEM_COMPONENT_COUNT>  (144) 
1

>  <PUBCHEM_COMPOUND_CANONICALIZED>  (144) 
1

>  <PUBCHEM_COMPOUND_CID>  (144) 
666977

>  <PUBCHEM_COORDINATE_TYPE>  (144) 
1
5
255

>  <PUBCHEM_EXACT_MASS>  (144) 
350.210661

>  <PUBCHEM_HEAVY_ATOM_COUNT>  (144) 
26

>  <PUBCHEM_ISOTOPIC_ATOM_COUNT>  (144) 
0

>  <PUBCHEM_IUPAC_CAS_NAME>  (144) 
4,7-dimethyl-2-[4-(phenylmethyl)-1-piperazinyl]-7,8-dihydro-6H-quinazolin-5-one

>  <PUBCHEM_IUPAC_INCHI>  (144) 
InChI=1S/C21H26N4O/c1-15-12-18-20(19(26)13-15)16(2)22-21(23-18)25-10-8-24(9-11-25)14-17-6-4-3-5-7-17/h3-7,15H,8-14H2,1-2H3

>  <PUBCHEM_IUPAC_INCHIKEY>  (144) 
HQMIWLXGUWTSCH-UHFFFAOYSA-N

>  <PUBCHEM_IUPAC_NAME>  (144) 
2-(4-benzylpiperazin-1-yl)-4,7-dimethyl-7,8-dihydro-6H-quinazolin-5-one

>  <PUBCHEM_IUPAC_OPENEYE_NAME>  (144) 
2-(4-benzylpiperazin-1-yl)-4,7-dimethyl-7,8-dihydro-6H-quinazolin-5-one

>  <PUBCHEM_IUPAC_SYSTEMATIC_NAME>  (144) 
4,7-dimethyl-2-[4-(phenylmethyl)piperazin-1-yl]-7,8-dihydro-6H-quinazolin-5-one

>  <PUBCHEM_IUPAC_TRADITIONAL_NAME>  (144) 
2-(4-benzylpiperazino)-4,7-dimethyl-7,8-dihydro-6H-quinazolin-5-one

>  <PUBCHEM_MOLECULAR_FORMULA>  (144) 
C21H26N4O

>  <PUBCHEM_MOLECULAR_WEIGHT>  (144) 
350.45734

>  <PUBCHEM_MONOISOTOPIC_WEIGHT>  (144) 
350.210661

>  <PUBCHEM_OPENEYE_CAN_SMILES>  (144) 
CC1CC2=C(C(=NC(=N2)N3CCN(CC3)CC4=CC=CC=C4)C)C(=O)C1

>  <PUBCHEM_OPENEYE_ISO_SMILES>  (144) 
CC1CC2=C(C(=NC(=N2)N3CCN(CC3)CC4=CC=CC=C4)C)C(=O)C1

>  <PUBCHEM_TOTAL_CHARGE>  (144) 
0

>  <PUBCHEM_XLOGP3_AA>  (144) 
2.9

$$$$
Largest isolated from Written by BCL::WriteToMDL,4313716
     RDKit          2D

 52 53  0 52  0  0  0  0  0  0999 V2000
    6.3967   -2.0041    0.0000 O   0  0  0  0  0  0  0  0  0  0  0  0
   -1.1009   -1.8139    0.0000 N   0  0  0  0  0  0  0  0  0  0  0  0
    1.6896    1.7165    0.0000 C   0  0  0  0  0  0  0  0  0  0  0  0
    0.5128    2.6466    0.0000 C   0  0  0  0  0  0  0  0  0  0  0  0
    0.7594    0.5397    0.0000 C   0  0  0  0  0  0  0  0  0  0  0  0
   -0.1707   -0.6371    0.0000 C   0  0  0  0  0  0  0  0  0  0  0  0
    2.8663    0.7863    0.0000 C   0  0  0  0  0  0  0  0  0  0  0  0
    1.4429    3.8234    0.0000 C   0  0  0  0  0  0  0  0  0  0  0  0
   -0.6640    3.5768    0.0000 C   0  0  0  0  0  0  0  0  0  0  0  0
   -2.5851   -1.5967    0.0000 C   0  0  0  0  0  0  0  0  0  0  0  0
    2.6492   -0.6979    0.0000 C   0  0  0  0  0  0  0  0  0  0  0  0
    4.2603    1.3404    0.0000 C   0  0  0  0  0  0  0  0  0  0  0  0
   -4.0693   -1.3796    0.0000 C   0  0  0  0  0  0  0  0  0  0  0  0
   -2.3680   -0.1125    0.0000 C   0  0  0  0  0  0  0  0  0  0  0  0
    3.8260   -1.6280    0.0000 C   0  0  0  0  0  0  0  0  0  0  0  0
    5.4370    0.4102    0.0000 C   0  0  0  0  0  0  0  0  0  0  0  0
    5.2199   -1.0740    0.0000 C   0  0  0  0  0  0  0  0  0  0  0  0
   -4.9994   -2.5564    0.0000 C   0  0  0  0  0  0  0  0  0  0  0  0
   -4.6233    0.0143    0.0000 C   0  0  0  0  0  0  0  0  0  0  0  0
   -6.4836   -2.3392    0.0000 C   0  0  0  0  0  0  0  0  0  0  0  0
   -6.1075    0.2315    0.0000 C   0  0  0  0  0  0  0  0  0  0  0  0
   -7.0377   -0.9453    0.0000 C   0  0  0  0  0  0  0  0  0  0  0  0
    6.1796   -3.4883    0.0000 C   0  0  0  0  0  0  0  0  0  0  0  0
    2.3194    2.3392    0.0000 H   0  0  0  0  0  0  0  0  0  0  0  0
   -0.1171    2.0239    0.0000 H   0  0  0  0  0  0  0  0  0  0  0  0
    0.0028    1.0001    0.0000 H   0  0  0  0  0  0  0  0  0  0  0  0
    1.6761   -0.6476    0.0000 H   0  0  0  0  0  0  0  0  0  0  0  0
   -1.2254    0.4296    0.0000 H   0  0  0  0  0  0  0  0  0  0  0  0
    0.8839   -1.7037    0.0000 H   0  0  0  0  0  0  0  0  0  0  0  0
    0.8202    4.4533    0.0000 H   0  0  0  0  0  0  0  0  0  0  0  0
    2.1996    3.3630    0.0000 H   0  0  0  0  0  0  0  0  0  0  0  0
    2.3731    5.0002    0.0000 H   0  0  0  0  0  0  0  0  0  0  0  0
   -0.2036    4.3334    0.0000 H   0  0  0  0  0  0  0  0  0  0  0  0
   -1.5942    2.4000    0.0000 H   0  0  0  0  0  0  0  0  0  0  0  0
   -1.8408    4.5069    0.0000 H   0  0  0  0  0  0  0  0  0  0  0  0
   -0.5468   -3.2078    0.0000 H   0  0  0  0  0  0  0  0  0  0  0  0
   -2.8022   -3.0809    0.0000 H   0  0  0  0  0  0  0  0  0  0  0  0
    1.3332   -1.4177    0.0000 H   0  0  0  0  0  0  0  0  0  0  0  0
    4.4774    2.8246    0.0000 H   0  0  0  0  0  0  0  0  0  0  0  0
   -3.7555    0.4573    0.0000 H   0  0  0  0  0  0  0  0  0  0  0  0
   -0.9045    0.2168    0.0000 H   0  0  0  0  0  0  0  0  0  0  0  0
   -2.1508    1.3717    0.0000 H   0  0  0  0  0  0  0  0  0  0  0  0
    3.6088   -3.1122    0.0000 H   0  0  0  0  0  0  0  0  0  0  0  0
    6.8310    0.9643    0.0000 H   0  0  0  0  0  0  0  0  0  0  0  0
   -4.4454   -3.9503    0.0000 H   0  0  0  0  0  0  0  0  0  0  0  0
   -3.6932    1.1911    0.0000 H   0  0  0  0  0  0  0  0  0  0  0  0
   -7.4138   -3.5160    0.0000 H   0  0  0  0  0  0  0  0  0  0  0  0
   -6.6616    1.6254    0.0000 H   0  0  0  0  0  0  0  0  0  0  0  0
   -8.5219   -0.7282    0.0000 H   0  0  0  0  0  0  0  0  0  0  0  0
    7.6638   -3.7055    0.0000 H   0  0  0  0  0  0  0  0  0  0  0  0
    4.6954   -3.2712    0.0000 H   0  0  0  0  0  0  0  0  0  0  0  0
    5.9624   -4.9725    0.0000 H   0  0  0  0  0  0  0  0  0  0  0  0
  1 17  1  0
  1 23  1  0
  2  6  1  0
  2 10  1  0
  2 36  1  0
  3  4  1  0
  3  5  1  0
  3  7  1  0
  3 24  1  1
  4  8  1  0
  4  9  1  0
  4 25  1  0
  5  6  1  0
  5 26  1  0
  5 27  1  0
  6 28  1  0
  6 29  1  0
  7 11  2  0
  7 12  1  0
  8 30  1  0
  8 31  1  0
  8 32  1  0
  9 33  1  0
  9 34  1  0
  9 35  1  0
 10 13  1  0
 10 14  1  0
 10 37  1  6
 11 15  1  0
 11 38  1  0
 12 16  2  0
 12 39  1  0
 13 18  2  0
 13 19  1  0
 14 40  1  0
 14 41  1  0
 14 42  1  0
 15 17  2  0
 15 43  1  0
 16 17  1  0
 16 44  1  0
 18 20  1  0
 18 45  1  0
 19 21  2  0
 19 46  1  0
 20 22  2  0
 20 47  1  0
 21 22  1  0
 21 48  1  0
 22 49  1  0
 23 50  1  0
 23 51  1  0
 23 52  1  0
M  STY  8   1 DAT   2 DAT   3 DAT   4 DAT   5 DAT   6 DAT   7 DAT   8 DAT
M  STY  8   9 DAT  10 DAT  11 DAT  12 DAT  13 DAT  14 DAT  15 DAT  16 DAT
M  STY  8  17 DAT  18 DAT  19 DAT  20 DAT  21 DAT  22 DAT  23 DAT  24 DAT
M  STY  8  25 DAT  26 DAT  27 DAT  28 DAT  29 DAT  30 DAT  31 DAT  32 DAT
M  STY  8  33 DAT  34 DAT  35 DAT  36 DAT  37 DAT  38 DAT  39 DAT  40 DAT
M  STY  8  41 DAT  42 DAT  43 DAT  44 DAT  45 DAT  46 DAT  47 DAT  48 DAT
M  STY  4  49 DAT  50 DAT  51 DAT  52 DAT
M  SAL   1  1   1
M  SED   1 [#8&h0]
M  SAL   2  1   2
M  SED   2 [#7&h0]
M  SAL   3  1   3
M  SED   3 [#6&h0]
M  SAL   4  1   4
M  SED   4 [#6&h0]
M  SAL   5  1   5
M  SED   5 [#6&h0]
M  SAL   6  1   6
M  SED   6 [#6&h0]
M  SAL   7  1   7
M  SED   7 [#6&h0]
M  SAL   8  1   8
M  SED   8 [#6&h0]
M  SAL   9  1   9
M  SED   9 [#6&h0]
M  SAL  10  1  10
M  SED  10 [#6&h0]
M  SAL  11  1  11
M  SED  11 [#6&h0]
M  SAL  12  1  12
M  SED  12 [#6&h0]
M  SAL  13  1  13
M  SED  13 [#6&h0]
M  SAL  14  1  14
M  SED  14 [#6&h0]
M  SAL  15  1  15
M  SED  15 [#6&h0]
M  SAL  16  1  16
M  SED  16 [#6&h0]
M  SAL  17  1  17
M  SED  17 [#6&h0]
M  SAL  18  1  18
M  SED  18 [#6&h0]
M  SAL  19  1  19
M  SED  19 [#6&h0]
M  SAL  20  1  20
M  SED  20 [#6&h0]
M  SAL  21  1  21
M  SED  21 [#6&h0]
M  SAL  22  1  22
M  SED  22 [#6&h0]
M  SAL  23  1  23
M  SED  23 [#6&h0]
M  SAL  24  1  24
M  SED  24 [#1&h0]
M  SAL  25  1  25
M  SED  25 [#1&h0]
M  SAL  26  1  26
M  SED  26 [#1&h0]
M  SAL  27  1  27
M  SED  27 [#1&h0]
M  SAL  28  1  28
M  SED  28 [#1&h0]
M  SAL  29  1  29
M  SED  29 [#1&h0]
M  SAL  30  1  30
M  SED  30 [#1&h0]
M  SAL  31  1  31
M  SED  31 [#1&h0]
M  SAL  32  1  32
M  SED  32 [#1&h0]
M  SAL  33  1  33
M  SED  33 [#1&h0]
M  SAL  34  1  34
M  SED  34 [#1&h0]
M  SAL  35  1  35
M  SED  35 [#1&h0]
M  SAL  36  1  36
M  SED  36 [#1&h0]
M  SAL  37  1  37
M  SED  37 [#1&h0]
M  SAL  38  1  38
M  SED  38 [#1&h0]
M  SAL  39  1  39
M  SED  39 [#1&h0]
M  SAL  40  1  40
M  SED  40 [#1&h0]
M  SAL  41  1  41
M  SED  41 [#1&h0]
M  SAL  42  1  42
M  SED  42 [#1&h0]
M  SAL  43  1  43
M  SED  43 [#1&h0]
M  SAL  44  1  44
M  SED  44 [#1&h0]
M  SAL  45  1  45
M  SED  45 [#1&h0]
M  SAL  46  1  46
M  SED  46 [#1&h0]
M  SAL  47  1  47
M  SED  47 [#1&h0]
M  SAL  48  1  48
M  SED  48 [#1&h0]
M  SAL  49  1  49
M  SED  49 [#1&h0]
M  SAL  50  1  50
M  SED  50 [#1&h0]
M  SAL  51  1  51
M  SED  51 [#1&h0]
M  SAL  52  1  52
M  SED  52 [#1&h0]
M  END
>  <Activity>  (145) 
0.01

>  <Mapped(file=2032.csv.activities,property=Cached(PUBCHEM_COMPOUND_CID))>  (145) 
100

>  <MatchIndices>  (145) 
220 

>  <PUBCHEM_ATOM_DEF_STEREO_COUNT>  (145) 
0

>  <PUBCHEM_ATOM_UDEF_STEREO_COUNT>  (145) 
2

>  <PUBCHEM_BONDANNOTATIONS>  (145) 
10  14  3
11  15  8
12  16  8
13  18  8
13  19  8
15  17  8
16  17  8
18  20  8
19  21  8
20  22  8
21  22  8
3  5  3
7  11  8
7  12  8

>  <PUBCHEM_BOND_DEF_STEREO_COUNT>  (145) 
0

>  <PUBCHEM_BOND_UDEF_STEREO_COUNT>  (145) 
0

>  <PUBCHEM_CACTVS_COMPLEXITY>  (145) 
303

>  <PUBCHEM_CACTVS_HBOND_ACCEPTOR>  (145) 
2

>  <PUBCHEM_CACTVS_HBOND_DONOR>  (145) 
1

>  <PUBCHEM_CACTVS_ROTATABLE_BOND>  (145) 
8

>  <PUBCHEM_CACTVS_SUBSKEYS>  (145) 
AAADceB6IAAAAAAAAAAAAAAAAAAAAAAAAAAwYAAAAAAAAAABQAAAHgAQAAAADSzBmAYyBoLABACAAiBCAACCCAAgIAAIiIAODIgMJiKEsRuEMChk0BGIqAeQwPAOoAAAAAAAAABAAAAAAAAAAAAAAAAAAA==

>  <PUBCHEM_CACTVS_TAUTO_COUNT>  (145) 
1

>  <PUBCHEM_CACTVS_TPSA>  (145) 
21.3

>  <PUBCHEM_COMPONENT_COUNT>  (145) 
1

>  <PUBCHEM_COMPOUND_CANONICALIZED>  (145) 
1

>  <PUBCHEM_COMPOUND_CID>  (145) 
4313716

>  <PUBCHEM_COORDINATE_TYPE>  (145) 
1
5
255

>  <PUBCHEM_EXACT_MASS>  (145) 
311.224915

>  <PUBCHEM_HEAVY_ATOM_COUNT>  (145) 
23

>  <PUBCHEM_ISOTOPIC_ATOM_COUNT>  (145) 
0

>  <PUBCHEM_IUPAC_CAS_NAME>  (145) 
3-(4-methoxyphenyl)-4-methyl-N-(1-phenylethyl)-1-pentanamine

>  <PUBCHEM_IUPAC_INCHI>  (145) 
InChI=1S/C21H29NO/c1-16(2)21(19-10-12-20(23-4)13-11-19)14-15-22-17(3)18-8-6-5-7-9-18/h5-13,16-17,21-22H,14-15H2,1-4H3

>  <PUBCHEM_IUPAC_INCHIKEY>  (145) 
FSRSEQHPNWNBKP-UHFFFAOYSA-N

>  <PUBCHEM_IUPAC_NAME>  (145) 
3-(4-methoxyphenyl)-4-methyl-N-(1-phenylethyl)pentan-1-amine

>  <PUBCHEM_IUPAC_OPENEYE_NAME>  (145) 
3-(4-methoxyphenyl)-4-methyl-N-(1-phenylethyl)pentan-1-amine

>  <PUBCHEM_IUPAC_SYSTEMATIC_NAME>  (145) 
3-(4-methoxyphenyl)-4-methyl-N-(1-phenylethyl)pentan-1-amine

>  <PUBCHEM_IUPAC_TRADITIONAL_NAME>  (145) 
[3-(4-methoxyphenyl)-4-methyl-pentyl]-(1-phenylethyl)amine

>  <PUBCHEM_MOLECULAR_FORMULA>  (145) 
C21H29NO

>  <PUBCHEM_MOLECULAR_WEIGHT>  (145) 
311.46106

>  <PUBCHEM_MONOISOTOPIC_WEIGHT>  (145) 
311.224915

>  <PUBCHEM_OPENEYE_CAN_SMILES>  (145) 
CC(C)C(CCNC(C)C1=CC=CC=C1)C2=CC=C(C=C2)OC

>  <PUBCHEM_OPENEYE_ISO_SMILES>  (145) 
CC(C)C(CCNC(C)C1=CC=CC=C1)C2=CC=C(C=C2)OC

>  <PUBCHEM_TOTAL_CHARGE>  (145) 
0

>  <PUBCHEM_XLOGP3_AA>  (145) 
5.1

$$$$
Largest isolated from Written by BCL::WriteToMDL,16194857
     RDKit          2D

 46 48  0 46  0  0  0  0  0  0999 V2000
    0.5950   -0.5915    0.0000 O   0  0  0  0  0  0  0  0  0  0  0  0
   -3.1374   -3.1054    0.0000 O   0  0  0  0  0  0  0  0  0  0  0  0
   -8.0584   -0.0900    0.0000 O   0  0  0  0  0  0  0  0  0  0  0  0
   -3.5691    0.2208    0.0000 N   0  0  0  0  0  0  0  0  0  0  0  0
    1.9428   -1.2500    0.0000 N   0  0  0  0  0  0  0  0  0  0  0  0
    5.5204    0.2553    0.0000 C   0  0  0  0  0  0  0  0  0  0  0  0
    4.6824    1.4995    0.0000 C   0  0  0  0  0  0  0  0  0  0  0  0
    4.5961   -0.9261    0.0000 C   0  0  0  0  0  0  0  0  0  0  0  0
    3.2403    1.0870    0.0000 C   0  0  0  0  0  0  0  0  0  0  0  0
    3.1869   -0.4121    0.0000 C   0  0  0  0  0  0  0  0  0  0  0  0
   -1.8932   -2.2674    0.0000 C   0  0  0  0  0  0  0  0  0  0  0  0
   -2.7312   -1.0233    0.0000 C   0  0  0  0  0  0  0  0  0  0  0  0
    5.0463    2.9546    0.0000 C   0  0  0  0  0  0  0  0  0  0  0  0
    7.0056    0.0456    0.0000 C   0  0  0  0  0  0  0  0  0  0  0  0
   -0.6491   -1.4295    0.0000 C   0  0  0  0  0  0  0  0  0  0  0  0
    2.1620    2.1297    0.0000 C   0  0  0  0  0  0  0  0  0  0  0  0
    5.1570   -2.3172    0.0000 C   0  0  0  0  0  0  0  0  0  0  0  0
   -5.0655    0.1172    0.0000 C   0  0  0  0  0  0  0  0  0  0  0  0
    3.9680    3.9974    0.0000 C   0  0  0  0  0  0  0  0  0  0  0  0
    7.5666   -1.3456    0.0000 C   0  0  0  0  0  0  0  0  0  0  0  0
    2.5258    3.5849    0.0000 C   0  0  0  0  0  0  0  0  0  0  0  0
    6.6423   -2.5270    0.0000 C   0  0  0  0  0  0  0  0  0  0  0  0
   -6.5619    0.0136    0.0000 C   0  0  0  0  0  0  0  0  0  0  0  0
   -8.8963    1.1541    0.0000 C   0  0  0  0  0  0  0  0  0  0  0  0
   -1.0553   -3.5115    0.0000 H   0  0  0  0  0  0  0  0  0  0  0  0
   -3.9753   -1.8612    0.0000 H   0  0  0  0  0  0  0  0  0  0  0  0
   -2.0623   -0.4426    0.0000 H   0  0  0  0  0  0  0  0  0  0  0  0
   -1.0507   -0.6400    0.0000 H   0  0  0  0  0  0  0  0  0  0  0  0
    0.1888   -2.6736    0.0000 H   0  0  0  0  0  0  0  0  0  0  0  0
    6.4885    3.3671    0.0000 H   0  0  0  0  0  0  0  0  0  0  0  0
    7.9299    1.2269    0.0000 H   0  0  0  0  0  0  0  0  0  0  0  0
    0.7198    1.7172    0.0000 H   0  0  0  0  0  0  0  0  0  0  0  0
    4.2327   -3.4986    0.0000 H   0  0  0  0  0  0  0  0  0  0  0  0
   -2.9106    1.5686    0.0000 H   0  0  0  0  0  0  0  0  0  0  0  0
   -5.1691    1.6136    0.0000 H   0  0  0  0  0  0  0  0  0  0  0  0
   -4.9619   -1.3792    0.0000 H   0  0  0  0  0  0  0  0  0  0  0  0
    4.3319    5.4526    0.0000 H   0  0  0  0  0  0  0  0  0  0  0  0
    9.0519   -1.5554    0.0000 H   0  0  0  0  0  0  0  0  0  0  0  0
    1.4475    4.6276    0.0000 H   0  0  0  0  0  0  0  0  0  0  0  0
    7.2033   -3.9181    0.0000 H   0  0  0  0  0  0  0  0  0  0  0  0
   -6.4583   -1.4828    0.0000 H   0  0  0  0  0  0  0  0  0  0  0  0
   -6.6656    1.5100    0.0000 H   0  0  0  0  0  0  0  0  0  0  0  0
   -3.0337   -4.6018    0.0000 H   0  0  0  0  0  0  0  0  0  0  0  0
  -10.1404    0.3162    0.0000 H   0  0  0  0  0  0  0  0  0  0  0  0
   -7.6522    1.9921    0.0000 H   0  0  0  0  0  0  0  0  0  0  0  0
   -9.7342    2.3983    0.0000 H   0  0  0  0  0  0  0  0  0  0  0  0
  1  5  1  0
  1 15  1  0
  2 11  1  0
  2 43  1  0
  3 23  1  0
  3 24  1  0
  4 12  1  0
  4 18  1  0
  4 34  1  0
  5 10  2  0
  6  7  1  0
  6  8  2  0
  6 14  1  0
  7  9  2  0
  7 13  1  0
  8 10  1  0
  8 17  1  0
  9 10  1  0
  9 16  1  0
 11 12  1  0
 11 15  1  0
 11 25  1  6
 12 26  1  0
 12 27  1  0
 13 19  2  0
 13 30  1  0
 14 20  2  0
 14 31  1  0
 15 28  1  0
 15 29  1  0
 16 21  2  0
 16 32  1  0
 17 22  2  0
 17 33  1  0
 18 23  1  0
 18 35  1  0
 18 36  1  0
 19 21  1  0
 19 37  1  0
 20 22  1  0
 20 38  1  0
 21 39  1  0
 22 40  1  0
 23 41  1  0
 23 42  1  0
 24 44  1  0
 24 45  1  0
 24 46  1  0
M  STY  8   1 DAT   2 DAT   3 DAT   4 DAT   5 DAT   6 DAT   7 DAT   8 DAT
M  STY  8   9 DAT  10 DAT  11 DAT  12 DAT  13 DAT  14 DAT  15 DAT  16 DAT
M  STY  8  17 DAT  18 DAT  19 DAT  20 DAT  21 DAT  22 DAT  23 DAT  24 DAT
M  STY  8  25 DAT  26 DAT  27 DAT  28 DAT  29 DAT  30 DAT  31 DAT  32 DAT
M  STY  8  33 DAT  34 DAT  35 DAT  36 DAT  37 DAT  38 DAT  39 DAT  40 DAT
M  STY  6  41 DAT  42 DAT  43 DAT  44 DAT  45 DAT  46 DAT
M  SAL   1  1   1
M  SED   1 [#8&h0]
M  SAL   2  1   2
M  SED   2 [#8&h0]
M  SAL   3  1   3
M  SED   3 [#8&h0]
M  SAL   4  1   4
M  SED   4 [#7&h0]
M  SAL   5  1   5
M  SED   5 [#7&h0]
M  SAL   6  1   6
M  SED   6 [#6&h0]
M  SAL   7  1   7
M  SED   7 [#6&h0]
M  SAL   8  1   8
M  SED   8 [#6&h0]
M  SAL   9  1   9
M  SED   9 [#6&h0]
M  SAL  10  1  10
M  SED  10 [#6&h0]
M  SAL  11  1  11
M  SED  11 [#6&h0]
M  SAL  12  1  12
M  SED  12 [#6&h0]
M  SAL  13  1  13
M  SED  13 [#6&h0]
M  SAL  14  1  14
M  SED  14 [#6&h0]
M  SAL  15  1  15
M  SED  15 [#6&h0]
M  SAL  16  1  16
M  SED  16 [#6&h0]
M  SAL  17  1  17
M  SED  17 [#6&h0]
M  SAL  18  1  18
M  SED  18 [#6&h0]
M  SAL  19  1  19
M  SED  19 [#6&h0]
M  SAL  20  1  20
M  SED  20 [#6&h0]
M  SAL  21  1  21
M  SED  21 [#6&h0]
M  SAL  22  1  22
M  SED  22 [#6&h0]
M  SAL  23  1  23
M  SED  23 [#6&h0]
M  SAL  24  1  24
M  SED  24 [#6&h0]
M  SAL  25  1  25
M  SED  25 [#1&h0]
M  SAL  26  1  26
M  SED  26 [#1&h0]
M  SAL  27  1  27
M  SED  27 [#1&h0]
M  SAL  28  1  28
M  SED  28 [#1&h0]
M  SAL  29  1  29
M  SED  29 [#1&h0]
M  SAL  30  1  30
M  SED  30 [#1&h0]
M  SAL  31  1  31
M  SED  31 [#1&h0]
M  SAL  32  1  32
M  SED  32 [#1&h0]
M  SAL  33  1  33
M  SED  33 [#1&h0]
M  SAL  34  1  34
M  SED  34 [#1&h0]
M  SAL  35  1  35
M  SED  35 [#1&h0]
M  SAL  36  1  36
M  SED  36 [#1&h0]
M  SAL  37  1  37
M  SED  37 [#1&h0]
M  SAL  38  1  38
M  SED  38 [#1&h0]
M  SAL  39  1  39
M  SED  39 [#1&h0]
M  SAL  40  1  40
M  SED  40 [#1&h0]
M  SAL  41  1  41
M  SED  41 [#1&h0]
M  SAL  42  1  42
M  SED  42 [#1&h0]
M  SAL  43  1  43
M  SED  43 [#1&h0]
M  SAL  44  1  44
M  SED  44 [#1&h0]
M  SAL  45  1  45
M  SED  45 [#1&h0]
M  SAL  46  1  46
M  SED  46 [#1&h0]
M  END
>  <Activity>  (146) 
0.01

>  <Mapped(file=2032.csv.activities,property=Cached(PUBCHEM_COMPOUND_CID))>  (146) 
100

>  <MatchIndices>  (146) 
158 

>  <PUBCHEM_ATOM_DEF_STEREO_COUNT>  (146) 
0

>  <PUBCHEM_ATOM_UDEF_STEREO_COUNT>  (146) 
1

>  <PUBCHEM_BONDANNOTATIONS>  (146) 
13  19  8
14  20  8
16  21  8
17  22  8
19  21  8
11  2  3
20  22  8
6  14  8
6  8  8
7  13  8
7  9  8
8  17  8
9  16  8

>  <PUBCHEM_BOND_DEF_STEREO_COUNT>  (146) 
0

>  <PUBCHEM_BOND_UDEF_STEREO_COUNT>  (146) 
0

>  <PUBCHEM_CACTVS_COMPLEXITY>  (146) 
391

>  <PUBCHEM_CACTVS_HBOND_ACCEPTOR>  (146) 
5

>  <PUBCHEM_CACTVS_HBOND_DONOR>  (146) 
2

>  <PUBCHEM_CACTVS_ROTATABLE_BOND>  (146) 
8

>  <PUBCHEM_CACTVS_SUBSKEYS>  (146) 
AAADceB7MAAAAAAAAAAAAAAAAAAAAYAAAAAwYAAAAAAAAGABQAAAHgAUCAAADBzhmAYyAILQBgCgAyBiAAACAAAgAAAIiIAoAJgLMKKAERCFIAAikACZiAcAgMAOgAAAAAAQAAAAAAAAACAAAQAACAAAAA==

>  <PUBCHEM_CACTVS_TAUTO_COUNT>  (146) 
1

>  <PUBCHEM_CACTVS_TPSA>  (146) 
63.1

>  <PUBCHEM_COMPONENT_COUNT>  (146) 
1

>  <PUBCHEM_COMPOUND_CANONICALIZED>  (146) 
1

>  <PUBCHEM_COMPOUND_CID>  (146) 
16194857

>  <PUBCHEM_COORDINATE_TYPE>  (146) 
1
5
255

>  <PUBCHEM_EXACT_MASS>  (146) 
326.163043

>  <PUBCHEM_HEAVY_ATOM_COUNT>  (146) 
24

>  <PUBCHEM_ISOTOPIC_ATOM_COUNT>  (146) 
0

>  <PUBCHEM_IUPAC_CAS_NAME>  (146) 
1-(9-fluorenylideneamino)oxy-3-(2-methoxyethylamino)-2-propanol

>  <PUBCHEM_IUPAC_INCHI>  (146) 
InChI=1S/C19H22N2O3/c1-23-11-10-20-12-14(22)13-24-21-19-17-8-4-2-6-15(17)16-7-3-5-9-18(16)19/h2-9,14,20,22H,10-13H2,1H3

>  <PUBCHEM_IUPAC_INCHIKEY>  (146) 
LGUIHZSWDZEVEN-UHFFFAOYSA-N

>  <PUBCHEM_IUPAC_NAME>  (146) 
1-(fluoren-9-ylideneamino)oxy-3-(2-methoxyethylamino)propan-2-ol

>  <PUBCHEM_IUPAC_OPENEYE_NAME>  (146) 
1-(fluoren-9-ylideneamino)oxy-3-(2-methoxyethylamino)propan-2-ol

>  <PUBCHEM_IUPAC_SYSTEMATIC_NAME>  (146) 
1-(fluoren-9-ylideneamino)oxy-3-(2-methoxyethylamino)propan-2-ol

>  <PUBCHEM_IUPAC_TRADITIONAL_NAME>  (146) 
1-(fluoren-9-ylideneamino)oxy-3-(2-methoxyethylamino)propan-2-ol

>  <PUBCHEM_MOLECULAR_FORMULA>  (146) 
C19H22N2O3

>  <PUBCHEM_MOLECULAR_WEIGHT>  (146) 
326.38958

>  <PUBCHEM_MONOISOTOPIC_WEIGHT>  (146) 
326.163043

>  <PUBCHEM_OPENEYE_CAN_SMILES>  (146) 
COCCNCC(CON=C1C2=CC=CC=C2C3=CC=CC=C31)O

>  <PUBCHEM_OPENEYE_ISO_SMILES>  (146) 
COCCNCC(CON=C1C2=CC=CC=C2C3=CC=CC=C31)O

>  <PUBCHEM_TOTAL_CHARGE>  (146) 
0

>  <PUBCHEM_XLOGP3_AA>  (146) 
2.4

$$$$
Largest isolated from Written by BCL::WriteToMDL,17367817
     RDKit          2D

 40 42  0 40  0  0  0  0  0  0999 V2000
   -6.8369   -1.1641    0.0000 O   0  0  0  0  0  0  0  0  0  0  0  0
    0.1775    1.4909    0.0000 N   0  0  0  0  0  0  0  0  0  0  0  0
    2.5001   -0.4080    0.0000 C   0  0  0  0  0  0  0  0  0  0  0  0
    1.3388    0.5414    0.0000 C   0  0  0  0  0  0  0  0  0  0  0  0
    3.9029    0.1230    0.0000 C   0  0  0  0  0  0  0  0  0  0  0  0
    5.0642   -0.8264    0.0000 C   0  0  0  0  0  0  0  0  0  0  0  0
   -1.2254    0.9599    0.0000 C   0  0  0  0  0  0  0  0  0  0  0  0
    2.2585   -1.8884    0.0000 C   0  0  0  0  0  0  0  0  0  0  0  0
   -2.6283    0.4289    0.0000 C   0  0  0  0  0  0  0  0  0  0  0  0
    4.1445    1.6034    0.0000 C   0  0  0  0  0  0  0  0  0  0  0  0
    4.8226   -2.3068    0.0000 C   0  0  0  0  0  0  0  0  0  0  0  0
    3.4197   -2.8378    0.0000 C   0  0  0  0  0  0  0  0  0  0  0  0
    6.4671   -0.2954    0.0000 C   0  0  0  0  0  0  0  0  0  0  0  0
    5.5474    2.1344    0.0000 C   0  0  0  0  0  0  0  0  0  0  0  0
    6.7087    1.1850    0.0000 C   0  0  0  0  0  0  0  0  0  0  0  0
   -3.7895    1.3783    0.0000 C   0  0  0  0  0  0  0  0  0  0  0  0
   -2.8699   -1.0515    0.0000 C   0  0  0  0  0  0  0  0  0  0  0  0
   -5.1924    0.8474    0.0000 C   0  0  0  0  0  0  0  0  0  0  0  0
   -4.2727   -1.5825    0.0000 C   0  0  0  0  0  0  0  0  0  0  0  0
   -5.4340   -0.6331    0.0000 C   0  0  0  0  0  0  0  0  0  0  0  0
   -7.9982   -0.2146    0.0000 C   0  0  0  0  0  0  0  0  0  0  0  0
    2.2882    1.7027    0.0000 H   0  0  0  0  0  0  0  0  0  0  0  0
    0.3893   -0.6198    0.0000 H   0  0  0  0  0  0  0  0  0  0  0  0
   -1.7564    2.3628    0.0000 H   0  0  0  0  0  0  0  0  0  0  0  0
   -0.6944   -0.4430    0.0000 H   0  0  0  0  0  0  0  0  0  0  0  0
    0.4191    2.9713    0.0000 H   0  0  0  0  0  0  0  0  0  0  0  0
    0.8556   -2.4194    0.0000 H   0  0  0  0  0  0  0  0  0  0  0  0
    2.9832    2.5529    0.0000 H   0  0  0  0  0  0  0  0  0  0  0  0
    5.9839   -3.2563    0.0000 H   0  0  0  0  0  0  0  0  0  0  0  0
    3.1782   -4.3182    0.0000 H   0  0  0  0  0  0  0  0  0  0  0  0
    7.6284   -1.2449    0.0000 H   0  0  0  0  0  0  0  0  0  0  0  0
    5.7890    3.6148    0.0000 H   0  0  0  0  0  0  0  0  0  0  0  0
    8.1115    1.7160    0.0000 H   0  0  0  0  0  0  0  0  0  0  0  0
   -3.5480    2.8588    0.0000 H   0  0  0  0  0  0  0  0  0  0  0  0
   -1.7086   -2.0009    0.0000 H   0  0  0  0  0  0  0  0  0  0  0  0
   -6.3537    1.7968    0.0000 H   0  0  0  0  0  0  0  0  0  0  0  0
   -4.5143   -3.0629    0.0000 H   0  0  0  0  0  0  0  0  0  0  0  0
   -8.9476   -1.3759    0.0000 H   0  0  0  0  0  0  0  0  0  0  0  0
   -7.0487    0.9467    0.0000 H   0  0  0  0  0  0  0  0  0  0  0  0
   -9.1595    0.7348    0.0000 H   0  0  0  0  0  0  0  0  0  0  0  0
  1 20  1  0
  1 21  1  0
  2  4  1  0
  2  7  1  0
  2 26  1  0
  3  4  1  0
  3  5  1  0
  3  8  2  0
  4 22  1  0
  4 23  1  0
  5  6  2  0
  5 10  1  0
  6 11  1  0
  6 13  1  0
  7  9  1  0
  7 24  1  0
  7 25  1  0
  8 12  1  0
  8 27  1  0
  9 16  2  0
  9 17  1  0
 10 14  2  0
 10 28  1  0
 11 12  2  0
 11 29  1  0
 12 30  1  0
 13 15  2  0
 13 31  1  0
 14 15  1  0
 14 32  1  0
 15 33  1  0
 16 18  1  0
 16 34  1  0
 17 19  2  0
 17 35  1  0
 18 20  2  0
 18 36  1  0
 19 20  1  0
 19 37  1  0
 21 38  1  0
 21 39  1  0
 21 40  1  0
M  STY  8   1 DAT   2 DAT   3 DAT   4 DAT   5 DAT   6 DAT   7 DAT   8 DAT
M  STY  8   9 DAT  10 DAT  11 DAT  12 DAT  13 DAT  14 DAT  15 DAT  16 DAT
M  STY  8  17 DAT  18 DAT  19 DAT  20 DAT  21 DAT  22 DAT  23 DAT  24 DAT
M  STY  8  25 DAT  26 DAT  27 DAT  28 DAT  29 DAT  30 DAT  31 DAT  32 DAT
M  STY  8  33 DAT  34 DAT  35 DAT  36 DAT  37 DAT  38 DAT  39 DAT  40 DAT
M  SAL   1  1   1
M  SED   1 [#8&h0]
M  SAL   2  1   2
M  SED   2 [#7&h0]
M  SAL   3  1   3
M  SED   3 [#6&h0]
M  SAL   4  1   4
M  SED   4 [#6&h0]
M  SAL   5  1   5
M  SED   5 [#6&h0]
M  SAL   6  1   6
M  SED   6 [#6&h0]
M  SAL   7  1   7
M  SED   7 [#6&h0]
M  SAL   8  1   8
M  SED   8 [#6&h0]
M  SAL   9  1   9
M  SED   9 [#6&h0]
M  SAL  10  1  10
M  SED  10 [#6&h0]
M  SAL  11  1  11
M  SED  11 [#6&h0]
M  SAL  12  1  12
M  SED  12 [#6&h0]
M  SAL  13  1  13
M  SED  13 [#6&h0]
M  SAL  14  1  14
M  SED  14 [#6&h0]
M  SAL  15  1  15
M  SED  15 [#6&h0]
M  SAL  16  1  16
M  SED  16 [#6&h0]
M  SAL  17  1  17
M  SED  17 [#6&h0]
M  SAL  18  1  18
M  SED  18 [#6&h0]
M  SAL  19  1  19
M  SED  19 [#6&h0]
M  SAL  20  1  20
M  SED  20 [#6&h0]
M  SAL  21  1  21
M  SED  21 [#6&h0]
M  SAL  22  1  22
M  SED  22 [#1&h0]
M  SAL  23  1  23
M  SED  23 [#1&h0]
M  SAL  24  1  24
M  SED  24 [#1&h0]
M  SAL  25  1  25
M  SED  25 [#1&h0]
M  SAL  26  1  26
M  SED  26 [#1&h0]
M  SAL  27  1  27
M  SED  27 [#1&h0]
M  SAL  28  1  28
M  SED  28 [#1&h0]
M  SAL  29  1  29
M  SED  29 [#1&h0]
M  SAL  30  1  30
M  SED  30 [#1&h0]
M  SAL  31  1  31
M  SED  31 [#1&h0]
M  SAL  32  1  32
M  SED  32 [#1&h0]
M  SAL  33  1  33
M  SED  33 [#1&h0]
M  SAL  34  1  34
M  SED  34 [#1&h0]
M  SAL  35  1  35
M  SED  35 [#1&h0]
M  SAL  36  1  36
M  SED  36 [#1&h0]
M  SAL  37  1  37
M  SED  37 [#1&h0]
M  SAL  38  1  38
M  SED  38 [#1&h0]
M  SAL  39  1  39
M  SED  39 [#1&h0]
M  SAL  40  1  40
M  SED  40 [#1&h0]
M  END
>  <Activity>  (147) 
0.01

>  <Mapped(file=2032.csv.activities,property=Cached(PUBCHEM_COMPOUND_CID))>  (147) 
100

>  <MatchIndices>  (147) 
0 

>  <PUBCHEM_ATOM_DEF_STEREO_COUNT>  (147) 
0

>  <PUBCHEM_ATOM_UDEF_STEREO_COUNT>  (147) 
0

>  <PUBCHEM_BONDANNOTATIONS>  (147) 
10  15  8
10  17  8
12  16  8
13  20  8
13  21  8
14  18  8
15  16  8
17  19  8
18  19  8
20  22  8
21  23  8
22  24  8
23  24  8
7  12  8
7  9  8
9  10  8
9  14  8

>  <PUBCHEM_BOND_DEF_STEREO_COUNT>  (147) 
0

>  <PUBCHEM_BOND_UDEF_STEREO_COUNT>  (147) 
0

>  <PUBCHEM_CACTVS_COMPLEXITY>  (147) 
370

>  <PUBCHEM_CACTVS_HBOND_ACCEPTOR>  (147) 
6

>  <PUBCHEM_CACTVS_HBOND_DONOR>  (147) 
3

>  <PUBCHEM_CACTVS_ROTATABLE_BOND>  (147) 
6

>  <PUBCHEM_CACTVS_SUBSKEYS>  (147) 
AAADceB6OAAAAAAAAAAAAAAAAAAAAAAAAAAwYMAAAAAAAADBVAAAHgAQCAAADATBmAYyDsLABgCIAiDSCAKCCAAgIAAIiIBODIgNJiKEsRuEMChkwBGJqAeQ0MIOoAACAAAQAABAAAQAACAAAAAAAAAAAA==

>  <PUBCHEM_CACTVS_TAUTO_COUNT>  (147) 
1

>  <PUBCHEM_CACTVS_TPSA>  (147) 
95.9

>  <PUBCHEM_COMPONENT_COUNT>  (147) 
2

>  <PUBCHEM_COMPOUND_CANONICALIZED>  (147) 
1

>  <PUBCHEM_COMPOUND_CID>  (147) 
17367817

>  <PUBCHEM_COORDINATE_TYPE>  (147) 
1
5
255

>  <PUBCHEM_EXACT_MASS>  (147) 
367.141973

>  <PUBCHEM_HEAVY_ATOM_COUNT>  (147) 
27

>  <PUBCHEM_ISOTOPIC_ATOM_COUNT>  (147) 
0

>  <PUBCHEM_IUPAC_CAS_NAME>  (147) 
1-(4-methoxyphenyl)-N-(1-naphthalenylmethyl)methanamine; oxalic acid

>  <PUBCHEM_IUPAC_INCHI>  (147) 
InChI=1S/C19H19NO.C2H2O4/c1-21-18-11-9-15(10-12-18)13-20-14-17-7-4-6-16-5-2-3-8-19(16)17;3-1(4)2(5)6/h2-12,20H,13-14H2,1H3;(H,3,4)(H,5,6)

>  <PUBCHEM_IUPAC_INCHIKEY>  (147) 
YGHWLVHQJXNFHZ-UHFFFAOYSA-N

>  <PUBCHEM_IUPAC_NAME>  (147) 
1-(4-methoxyphenyl)-N-(naphthalen-1-ylmethyl)methanamine; oxalic acid

>  <PUBCHEM_IUPAC_OPENEYE_NAME>  (147) 
1-(4-methoxyphenyl)-N-(1-naphthylmethyl)methanamine; oxalic acid

>  <PUBCHEM_IUPAC_SYSTEMATIC_NAME>  (147) 
ethanedioic acid; 1-(4-methoxyphenyl)-N-(naphthalen-1-ylmethyl)methanamine

>  <PUBCHEM_IUPAC_TRADITIONAL_NAME>  (147) 
1-naphthylmethyl(p-anisyl)amine; oxalic acid

>  <PUBCHEM_MOLECULAR_FORMULA>  (147) 
C21H21NO5

>  <PUBCHEM_MOLECULAR_WEIGHT>  (147) 
367.39514

>  <PUBCHEM_MONOISOTOPIC_WEIGHT>  (147) 
367.141973

>  <PUBCHEM_OPENEYE_CAN_SMILES>  (147) 
COC1=CC=C(C=C1)CNCC2=CC=CC3=CC=CC=C32.C(=O)(C(=O)O)O

>  <PUBCHEM_OPENEYE_ISO_SMILES>  (147) 
COC1=CC=C(C=C1)CNCC2=CC=CC3=CC=CC=C32.C(=O)(C(=O)O)O

>  <PUBCHEM_TOTAL_CHARGE>  (147) 
0

$$$$
Largest isolated from Written by BCL::WriteToMDL,16197172
     RDKit          2D

 46 48  0 46  0  0  0  0  0  0999 V2000
    8.8710    1.3341    0.0000 Br  0  0  0  0  0  0  0  0  0  0  0  0
    0.8599   -1.5643    0.0000 O   0  0  0  0  0  0  0  0  0  0  0  0
   -0.4725    1.0726    0.0000 O   0  0  0  0  0  0  0  0  0  0  0  0
    4.2145   -3.6849    0.0000 O   0  0  0  0  0  0  0  0  0  0  0  0
   -9.4091    0.0058    0.0000 O   0  0  0  0  0  0  0  0  0  0  0  0
    1.7274   -4.4361    0.0000 N   0  0  0  0  0  0  0  0  0  0  0  0
    2.9133    0.6229    0.0000 C   0  0  0  0  0  0  0  0  0  0  0  0
    1.4528    0.9652    0.0000 C   0  0  0  0  0  0  0  0  0  0  0  0
    0.4262   -0.1284    0.0000 C   0  0  0  0  0  0  0  0  0  0  0  0
    4.4027    0.8007    0.0000 C   0  0  0  0  0  0  0  0  0  0  0  0
    3.3470   -0.8130    0.0000 C   0  0  0  0  0  0  0  0  0  0  0  0
    2.3203   -1.9066    0.0000 C   0  0  0  0  0  0  0  0  0  0  0  0
    5.3014   -0.4003    0.0000 C   0  0  0  0  0  0  0  0  0  0  0  0
    4.9934    2.1795    0.0000 C   0  0  0  0  0  0  0  0  0  0  0  0
   -1.9619    0.8948    0.0000 C   0  0  0  0  0  0  0  0  0  0  0  0
   -3.4514    0.7170    0.0000 C   0  0  0  0  0  0  0  0  0  0  0  0
    2.7541   -3.3426    0.0000 C   0  0  0  0  0  0  0  0  0  0  0  0
    6.7908   -0.2225    0.0000 C   0  0  0  0  0  0  0  0  0  0  0  0
    6.4828    2.3573    0.0000 C   0  0  0  0  0  0  0  0  0  0  0  0
    7.3815    1.1563    0.0000 C   0  0  0  0  0  0  0  0  0  0  0  0
   -4.3501    1.9180    0.0000 C   0  0  0  0  0  0  0  0  0  0  0  0
   -4.0421   -0.6618    0.0000 C   0  0  0  0  0  0  0  0  0  0  0  0
   -6.4302    0.3614    0.0000 C   0  0  0  0  0  0  0  0  0  0  0  0
   -5.8395    1.7402    0.0000 C   0  0  0  0  0  0  0  0  0  0  0  0
   -5.5315   -0.8396    0.0000 C   0  0  0  0  0  0  0  0  0  0  0  0
   -7.9196    0.1836    0.0000 C   0  0  0  0  0  0  0  0  0  0  0  0
    2.9968    2.1205    0.0000 H   0  0  0  0  0  0  0  0  0  0  0  0
    0.1976    1.7864    0.0000 H   0  0  0  0  0  0  0  0  0  0  0  0
    2.0436    2.3440    0.0000 H   0  0  0  0  0  0  0  0  0  0  0  0
   -0.8202   -0.9630    0.0000 H   0  0  0  0  0  0  0  0  0  0  0  0
    4.0952   -1.0882    0.0000 H   0  0  0  0  0  0  0  0  0  0  0  0
    5.0791   -1.1658    0.0000 H   0  0  0  0  0  0  0  0  0  0  0  0
    4.0947    3.3804    0.0000 H   0  0  0  0  0  0  0  0  0  0  0  0
   -2.1397    2.3842    0.0000 H   0  0  0  0  0  0  0  0  0  0  0  0
   -1.9670   -0.6052    0.0000 H   0  0  0  0  0  0  0  0  0  0  0  0
    7.6895   -1.4235    0.0000 H   0  0  0  0  0  0  0  0  0  0  0  0
    7.0736    3.7360    0.0000 H   0  0  0  0  0  0  0  0  0  0  0  0
   -3.7593    3.2968    0.0000 H   0  0  0  0  0  0  0  0  0  0  0  0
   -3.1434   -1.8628    0.0000 H   0  0  0  0  0  0  0  0  0  0  0  0
   -6.7382    2.9412    0.0000 H   0  0  0  0  0  0  0  0  0  0  0  0
   -6.1223   -2.2184    0.0000 H   0  0  0  0  0  0  0  0  0  0  0  0
    2.1611   -5.8721    0.0000 H   0  0  0  0  0  0  0  0  0  0  0  0
    0.2670   -4.0938    0.0000 H   0  0  0  0  0  0  0  0  0  0  0  0
   -7.7418   -1.3058    0.0000 H   0  0  0  0  0  0  0  0  0  0  0  0
   -8.0974    1.6730    0.0000 H   0  0  0  0  0  0  0  0  0  0  0  0
   -9.9998   -1.3730    0.0000 H   0  0  0  0  0  0  0  0  0  0  0  0
  1 20  1  0
  2  9  1  0
  2 12  1  0
  3  9  1  0
  3 15  1  0
  4 17  2  0
  5 26  1  0
  5 46  1  0
  6 17  1  0
  6 42  1  0
  6 43  1  0
  7  8  1  0
  7 10  1  0
  7 11  1  0
  7 27  1  6
  8  9  1  0
  8 28  1  0
  8 29  1  0
  9 30  1  6
 10 13  2  0
 10 14  1  0
 11 12  2  0
 11 31  1  0
 12 17  1  0
 13 18  1  0
 13 32  1  0
 14 19  2  0
 14 33  1  0
 15 16  1  0
 15 34  1  0
 15 35  1  0
 16 21  2  0
 16 22  1  0
 18 20  2  0
 18 36  1  0
 19 20  1  0
 19 37  1  0
 21 24  1  0
 21 38  1  0
 22 25  2  0
 22 39  1  0
 23 24  2  0
 23 25  1  0
 23 26  1  0
 24 40  1  0
 25 41  1  0
 26 44  1  0
 26 45  1  0
M  STY  8   1 DAT   2 DAT   3 DAT   4 DAT   5 DAT   6 DAT   7 DAT   8 DAT
M  STY  8   9 DAT  10 DAT  11 DAT  12 DAT  13 DAT  14 DAT  15 DAT  16 DAT
M  STY  8  17 DAT  18 DAT  19 DAT  20 DAT  21 DAT  22 DAT  23 DAT  24 DAT
M  STY  8  25 DAT  26 DAT  27 DAT  28 DAT  29 DAT  30 DAT  31 DAT  32 DAT
M  STY  8  33 DAT  34 DAT  35 DAT  36 DAT  37 DAT  38 DAT  39 DAT  40 DAT
M  STY  6  41 DAT  42 DAT  43 DAT  44 DAT  45 DAT  46 DAT
M  SAL   1  1   1
M  SED   1 [#35&h0]
M  SAL   2  1   2
M  SED   2 [#8&h0]
M  SAL   3  1   3
M  SED   3 [#8&h0]
M  SAL   4  1   4
M  SED   4 [#8&h0]
M  SAL   5  1   5
M  SED   5 [#8&h0]
M  SAL   6  1   6
M  SED   6 [#7&h0]
M  SAL   7  1   7
M  SED   7 [#6&h0]
M  SAL   8  1   8
M  SED   8 [#6&h0]
M  SAL   9  1   9
M  SED   9 [#6&h0]
M  SAL  10  1  10
M  SED  10 [#6&h0]
M  SAL  11  1  11
M  SED  11 [#6&h0]
M  SAL  12  1  12
M  SED  12 [#6&h0]
M  SAL  13  1  13
M  SED  13 [#6&h0]
M  SAL  14  1  14
M  SED  14 [#6&h0]
M  SAL  15  1  15
M  SED  15 [#6&h0]
M  SAL  16  1  16
M  SED  16 [#6&h0]
M  SAL  17  1  17
M  SED  17 [#6&h0]
M  SAL  18  1  18
M  SED  18 [#6&h0]
M  SAL  19  1  19
M  SED  19 [#6&h0]
M  SAL  20  1  20
M  SED  20 [#6&h0]
M  SAL  21  1  21
M  SED  21 [#6&h0]
M  SAL  22  1  22
M  SED  22 [#6&h0]
M  SAL  23  1  23
M  SED  23 [#6&h0]
M  SAL  24  1  24
M  SED  24 [#6&h0]
M  SAL  25  1  25
M  SED  25 [#6&h0]
M  SAL  26  1  26
M  SED  26 [#6&h0]
M  SAL  27  1  27
M  SED  27 [#1&h0]
M  SAL  28  1  28
M  SED  28 [#1&h0]
M  SAL  29  1  29
M  SED  29 [#1&h0]
M  SAL  30  1  30
M  SED  30 [#1&h0]
M  SAL  31  1  31
M  SED  31 [#1&h0]
M  SAL  32  1  32
M  SED  32 [#1&h0]
M  SAL  33  1  33
M  SED  33 [#1&h0]
M  SAL  34  1  34
M  SED  34 [#1&h0]
M  SAL  35  1  35
M  SED  35 [#1&h0]
M  SAL  36  1  36
M  SED  36 [#1&h0]
M  SAL  37  1  37
M  SED  37 [#1&h0]
M  SAL  38  1  38
M  SED  38 [#1&h0]
M  SAL  39  1  39
M  SED  39 [#1&h0]
M  SAL  40  1  40
M  SED  40 [#1&h0]
M  SAL  41  1  41
M  SED  41 [#1&h0]
M  SAL  42  1  42
M  SED  42 [#1&h0]
M  SAL  43  1  43
M  SED  43 [#1&h0]
M  SAL  44  1  44
M  SED  44 [#1&h0]
M  SAL  45  1  45
M  SED  45 [#1&h0]
M  SAL  46  1  46
M  SED  46 [#1&h0]
M  END
>  <Activity>  (148) 
0.01

>  <Mapped(file=2032.csv.activities,property=Cached(PUBCHEM_COMPOUND_CID))>  (148) 
100

>  <MatchIndices>  (148) 
145 

>  <PUBCHEM_ATOM_DEF_STEREO_COUNT>  (148) 
2

>  <PUBCHEM_ATOM_UDEF_STEREO_COUNT>  (148) 
0

>  <PUBCHEM_BONDANNOTATIONS>  (148) 
10  13  8
10  14  8
13  18  8
14  19  8
16  21  8
16  22  8
18  20  8
19  20  8
21  24  8
22  25  8
23  24  8
23  25  8
9  3  6
7  10  6

>  <PUBCHEM_BOND_DEF_STEREO_COUNT>  (148) 
0

>  <PUBCHEM_BOND_UDEF_STEREO_COUNT>  (148) 
0

>  <PUBCHEM_CACTVS_COMPLEXITY>  (148) 
496

>  <PUBCHEM_CACTVS_HBOND_ACCEPTOR>  (148) 
4

>  <PUBCHEM_CACTVS_HBOND_DONOR>  (148) 
2

>  <PUBCHEM_CACTVS_ROTATABLE_BOND>  (148) 
6

>  <PUBCHEM_CACTVS_SUBSKEYS>  (148) 
AAADceB6OAAAEAAAAAAAAAAAAAAAAAAAAAAwYIAAAAAAAAABQAAAHgBQCAABrQSxmAMwCIBABgCIAiFSEAKCCAAgIAQIiABACOgaNiKAMRyjcAAkwAEMu5eAwPAOwgAAAAAAAACEAAAAAAAAAAAAAAAAAA==

>  <PUBCHEM_CACTVS_TAUTO_COUNT>  (148) 
2

>  <PUBCHEM_CACTVS_TPSA>  (148) 
81.8

>  <PUBCHEM_COMPONENT_COUNT>  (148) 
1

>  <PUBCHEM_COMPOUND_CANONICALIZED>  (148) 
1

>  <PUBCHEM_COMPOUND_CID>  (148) 
16197172

>  <PUBCHEM_COORDINATE_TYPE>  (148) 
1
5
255

>  <PUBCHEM_EXACT_MASS>  (148) 
417.05757

>  <PUBCHEM_HEAVY_ATOM_COUNT>  (148) 
26

>  <PUBCHEM_ISOTOPIC_ATOM_COUNT>  (148) 
0

>  <PUBCHEM_IUPAC_CAS_NAME>  (148) 
(2R,4R)-4-(4-bromophenyl)-2-[[4-(hydroxymethyl)phenyl]methoxy]-3,4-dihydro-2H-pyran-6-carboxamide

>  <PUBCHEM_IUPAC_INCHI>  (148) 
InChI=1S/C20H20BrNO4/c21-17-7-5-15(6-8-17)16-9-18(20(22)24)26-19(10-16)25-12-14-3-1-13(11-23)2-4-14/h1-9,16,19,23H,10-12H2,(H2,22,24)/t16-,19+/m0/s1

>  <PUBCHEM_IUPAC_INCHIKEY>  (148) 
JUEZGVPSQUWWDO-QFBILLFUSA-N

>  <PUBCHEM_IUPAC_NAME>  (148) 
(2R,4R)-4-(4-bromophenyl)-2-[[4-(hydroxymethyl)phenyl]methoxy]-3,4-dihydro-2H-pyran-6-carboxamide

>  <PUBCHEM_IUPAC_OPENEYE_NAME>  (148) 
(2R,4R)-4-(4-bromophenyl)-2-[[4-(hydroxymethyl)phenyl]methoxy]-3,4-dihydro-2H-pyran-6-carboxamide

>  <PUBCHEM_IUPAC_SYSTEMATIC_NAME>  (148) 
(2R,4R)-4-(4-bromophenyl)-2-[[4-(hydroxymethyl)phenyl]methoxy]-3,4-dihydro-2H-pyran-6-carboxamide

>  <PUBCHEM_IUPAC_TRADITIONAL_NAME>  (148) 
(2R,4R)-4-(4-bromophenyl)-2-(4-methylolbenzyl)oxy-3,4-dihydro-2H-pyran-6-carboxamide

>  <PUBCHEM_MOLECULAR_FORMULA>  (148) 
C20H20BrNO4

>  <PUBCHEM_MOLECULAR_WEIGHT>  (148) 
418.2811

>  <PUBCHEM_MONOISOTOPIC_WEIGHT>  (148) 
417.05757

>  <PUBCHEM_OPENEYE_CAN_SMILES>  (148) 
C1C(C=C(OC1OCC2=CC=C(C=C2)CO)C(=O)N)C3=CC=C(C=C3)Br

>  <PUBCHEM_OPENEYE_ISO_SMILES>  (148) 
C1[C@H](C=C(O[C@H]1OCC2=CC=C(C=C2)CO)C(=O)N)C3=CC=C(C=C3)Br

>  <PUBCHEM_TOTAL_CHARGE>  (148) 
0

>  <PUBCHEM_XLOGP3_AA>  (148) 
3

$$$$
Largest isolated from Written by BCL::WriteToMDL,4213523
     RDKit          2D

 41 42  0 41  0  0  0  0  0  0999 V2000
    9.2716    0.7759    0.0000 F   0  0  0  0  0  0  0  0  0  0  0  0
   -2.2150   -1.1682    0.0000 O   0  0  0  0  0  0  0  0  0  0  0  0
    0.9661    2.0146    0.0000 O   0  0  0  0  0  0  0  0  0  0  0  0
    2.0276   -1.1671    0.0000 N   0  0  0  0  0  0  0  0  0  0  0  0
   -0.0943    0.9536    0.0000 C   0  0  0  0  0  0  0  0  0  0  0  0
    0.9667   -0.1067    0.0000 C   0  0  0  0  0  0  0  0  0  0  0  0
   -1.1546   -0.1073    0.0000 C   0  0  0  0  0  0  0  0  0  0  0  0
    3.4764   -0.7785    0.0000 C   0  0  0  0  0  0  0  0  0  0  0  0
    4.9252   -0.3899    0.0000 C   0  0  0  0  0  0  0  0  0  0  0  0
   -3.6640   -0.7804    0.0000 C   0  0  0  0  0  0  0  0  0  0  0  0
    5.9861   -1.4503    0.0000 C   0  0  0  0  0  0  0  0  0  0  0  0
    5.3130    1.0591    0.0000 C   0  0  0  0  0  0  0  0  0  0  0  0
   -4.0526    0.6684    0.0000 C   0  0  0  0  0  0  0  0  0  0  0  0
   -4.7244   -1.8413    0.0000 C   0  0  0  0  0  0  0  0  0  0  0  0
   -6.5620   -0.0046    0.0000 C   0  0  0  0  0  0  0  0  0  0  0  0
    7.4349   -1.0617    0.0000 C   0  0  0  0  0  0  0  0  0  0  0  0
    6.7618    1.4477    0.0000 C   0  0  0  0  0  0  0  0  0  0  0  0
   -5.5016    1.0563    0.0000 C   0  0  0  0  0  0  0  0  0  0  0  0
   -6.1734   -1.4534    0.0000 C   0  0  0  0  0  0  0  0  0  0  0  0
    7.8228    0.3873    0.0000 C   0  0  0  0  0  0  0  0  0  0  0  0
   -8.0110    0.3832    0.0000 C   0  0  0  0  0  0  0  0  0  0  0  0
   -1.1552    2.0140    0.0000 H   0  0  0  0  0  0  0  0  0  0  0  0
    0.4216   -0.8049    0.0000 H   0  0  0  0  0  0  0  0  0  0  0  0
    2.0271    0.9542    0.0000 H   0  0  0  0  0  0  0  0  0  0  0  0
   -0.6092   -0.8051    0.0000 H   0  0  0  0  0  0  0  0  0  0  0  0
   -2.2156    0.9531    0.0000 H   0  0  0  0  0  0  0  0  0  0  0  0
    1.6398   -2.6161    0.0000 H   0  0  0  0  0  0  0  0  0  0  0  0
    3.8650   -2.2273    0.0000 H   0  0  0  0  0  0  0  0  0  0  0  0
    3.0878    0.6703    0.0000 H   0  0  0  0  0  0  0  0  0  0  0  0
    0.5775    3.4634    0.0000 H   0  0  0  0  0  0  0  0  0  0  0  0
    5.5983   -2.8993    0.0000 H   0  0  0  0  0  0  0  0  0  0  0  0
    4.2521    2.1194    0.0000 H   0  0  0  0  0  0  0  0  0  0  0  0
   -2.9922    1.7294    0.0000 H   0  0  0  0  0  0  0  0  0  0  0  0
   -4.3358   -3.2901    0.0000 H   0  0  0  0  0  0  0  0  0  0  0  0
    8.4958   -2.1221    0.0000 H   0  0  0  0  0  0  0  0  0  0  0  0
    7.1497    2.8966    0.0000 H   0  0  0  0  0  0  0  0  0  0  0  0
   -5.8902    2.5051    0.0000 H   0  0  0  0  0  0  0  0  0  0  0  0
   -7.2338   -2.5144    0.0000 H   0  0  0  0  0  0  0  0  0  0  0  0
   -7.6231    1.8322    0.0000 H   0  0  0  0  0  0  0  0  0  0  0  0
   -8.3988   -1.0658    0.0000 H   0  0  0  0  0  0  0  0  0  0  0  0
   -9.4600    0.7711    0.0000 H   0  0  0  0  0  0  0  0  0  0  0  0
  1 20  1  0
  2  7  1  0
  2 10  1  0
  3  5  1  0
  3 30  1  0
  4  6  1  0
  4  8  1  0
  4 27  1  0
  5  6  1  0
  5  7  1  0
  5 22  1  6
  6 23  1  0
  6 24  1  0
  7 25  1  0
  7 26  1  0
  8  9  1  0
  8 28  1  0
  8 29  1  0
  9 11  2  0
  9 12  1  0
 10 13  2  0
 10 14  1  0
 11 16  1  0
 11 31  1  0
 12 17  2  0
 12 32  1  0
 13 18  1  0
 13 33  1  0
 14 19  2  0
 14 34  1  0
 15 18  2  0
 15 19  1  0
 15 21  1  0
 16 20  2  0
 16 35  1  0
 17 20  1  0
 17 36  1  0
 18 37  1  0
 19 38  1  0
 21 39  1  0
 21 40  1  0
 21 41  1  0
M  STY  8   1 DAT   2 DAT   3 DAT   4 DAT   5 DAT   6 DAT   7 DAT   8 DAT
M  STY  8   9 DAT  10 DAT  11 DAT  12 DAT  13 DAT  14 DAT  15 DAT  16 DAT
M  STY  8  17 DAT  18 DAT  19 DAT  20 DAT  21 DAT  22 DAT  23 DAT  24 DAT
M  STY  8  25 DAT  26 DAT  27 DAT  28 DAT  29 DAT  30 DAT  31 DAT  32 DAT
M  STY  8  33 DAT  34 DAT  35 DAT  36 DAT  37 DAT  38 DAT  39 DAT  40 DAT
M  STY  1  41 DAT
M  SAL   1  1   1
M  SED   1 [#9&h0]
M  SAL   2  1   2
M  SED   2 [#8&h0]
M  SAL   3  1   3
M  SED   3 [#8&h0]
M  SAL   4  1   4
M  SED   4 [#7&h0]
M  SAL   5  1   5
M  SED   5 [#6&h0]
M  SAL   6  1   6
M  SED   6 [#6&h0]
M  SAL   7  1   7
M  SED   7 [#6&h0]
M  SAL   8  1   8
M  SED   8 [#6&h0]
M  SAL   9  1   9
M  SED   9 [#6&h0]
M  SAL  10  1  10
M  SED  10 [#6&h0]
M  SAL  11  1  11
M  SED  11 [#6&h0]
M  SAL  12  1  12
M  SED  12 [#6&h0]
M  SAL  13  1  13
M  SED  13 [#6&h0]
M  SAL  14  1  14
M  SED  14 [#6&h0]
M  SAL  15  1  15
M  SED  15 [#6&h0]
M  SAL  16  1  16
M  SED  16 [#6&h0]
M  SAL  17  1  17
M  SED  17 [#6&h0]
M  SAL  18  1  18
M  SED  18 [#6&h0]
M  SAL  19  1  19
M  SED  19 [#6&h0]
M  SAL  20  1  20
M  SED  20 [#6&h0]
M  SAL  21  1  21
M  SED  21 [#6&h0]
M  SAL  22  1  22
M  SED  22 [#1&h0]
M  SAL  23  1  23
M  SED  23 [#1&h0]
M  SAL  24  1  24
M  SED  24 [#1&h0]
M  SAL  25  1  25
M  SED  25 [#1&h0]
M  SAL  26  1  26
M  SED  26 [#1&h0]
M  SAL  27  1  27
M  SED  27 [#1&h0]
M  SAL  28  1  28
M  SED  28 [#1&h0]
M  SAL  29  1  29
M  SED  29 [#1&h0]
M  SAL  30  1  30
M  SED  30 [#1&h0]
M  SAL  31  1  31
M  SED  31 [#1&h0]
M  SAL  32  1  32
M  SED  32 [#1&h0]
M  SAL  33  1  33
M  SED  33 [#1&h0]
M  SAL  34  1  34
M  SED  34 [#1&h0]
M  SAL  35  1  35
M  SED  35 [#1&h0]
M  SAL  36  1  36
M  SED  36 [#1&h0]
M  SAL  37  1  37
M  SED  37 [#1&h0]
M  SAL  38  1  38
M  SED  38 [#1&h0]
M  SAL  39  1  39
M  SED  39 [#1&h0]
M  SAL  40  1  40
M  SED  40 [#1&h0]
M  SAL  41  1  41
M  SED  41 [#1&h0]
M  END
>  <Activity>  (149) 
0.01

>  <Mapped(file=2032.csv.activities,property=Cached(PUBCHEM_COMPOUND_CID))>  (149) 
100

>  <MatchIndices>  (149) 
7 

>  <PUBCHEM_ATOM_DEF_STEREO_COUNT>  (149) 
0

>  <PUBCHEM_ATOM_UDEF_STEREO_COUNT>  (149) 
1

>  <PUBCHEM_BONDANNOTATIONS>  (149) 
10  13  8
10  14  8
11  16  8
12  17  8
13  18  8
14  19  8
15  18  8
15  19  8
16  20  8
17  20  8
5  22  3
9  11  8
9  12  8

>  <PUBCHEM_BOND_DEF_STEREO_COUNT>  (149) 
0

>  <PUBCHEM_BOND_UDEF_STEREO_COUNT>  (149) 
0

>  <PUBCHEM_CACTVS_COMPLEXITY>  (149) 
274

>  <PUBCHEM_CACTVS_HBOND_ACCEPTOR>  (149) 
4

>  <PUBCHEM_CACTVS_HBOND_DONOR>  (149) 
2

>  <PUBCHEM_CACTVS_ROTATABLE_BOND>  (149) 
7

>  <PUBCHEM_CACTVS_SUBSKEYS>  (149) 
AAADceB6MQAAAAAAAAAAAAAAAAAAAAAAAAAwYAAAAAAAAAABQAAAHwAQCAAADBThmA4yBoLABgCAAiBCAACCCAAgIAAIiIAODIgPNiKEsRuGOCjm0BGbqAeQwAAOIAAAAAAAAABAAAAAAAAAAAAAAAAAAA==

>  <PUBCHEM_CACTVS_TAUTO_COUNT>  (149) 
1

>  <PUBCHEM_CACTVS_TPSA>  (149) 
41.5

>  <PUBCHEM_COMPONENT_COUNT>  (149) 
1

>  <PUBCHEM_COMPOUND_CANONICALIZED>  (149) 
1

>  <PUBCHEM_COMPOUND_CID>  (149) 
4213523

>  <PUBCHEM_COORDINATE_TYPE>  (149) 
1
5
255

>  <PUBCHEM_EXACT_MASS>  (149) 
289.147807

>  <PUBCHEM_HEAVY_ATOM_COUNT>  (149) 
21

>  <PUBCHEM_ISOTOPIC_ATOM_COUNT>  (149) 
0

>  <PUBCHEM_IUPAC_CAS_NAME>  (149) 
1-[(4-fluorophenyl)methylamino]-3-(4-methylphenoxy)-2-propanol

>  <PUBCHEM_IUPAC_INCHI>  (149) 
InChI=1S/C17H20FNO2/c1-13-2-8-17(9-3-13)21-12-16(20)11-19-10-14-4-6-15(18)7-5-14/h2-9,16,19-20H,10-12H2,1H3

>  <PUBCHEM_IUPAC_INCHIKEY>  (149) 
NSADBIXOJGJCHV-UHFFFAOYSA-N

>  <PUBCHEM_IUPAC_NAME>  (149) 
1-[(4-fluorophenyl)methylamino]-3-(4-methylphenoxy)propan-2-ol

>  <PUBCHEM_IUPAC_OPENEYE_NAME>  (149) 
1-[(4-fluorophenyl)methylamino]-3-(4-methylphenoxy)propan-2-ol

>  <PUBCHEM_IUPAC_SYSTEMATIC_NAME>  (149) 
1-[(4-fluorophenyl)methylamino]-3-(4-methylphenoxy)propan-2-ol

>  <PUBCHEM_IUPAC_TRADITIONAL_NAME>  (149) 
1-[(4-fluorobenzyl)amino]-3-(4-methylphenoxy)propan-2-ol

>  <PUBCHEM_MOLECULAR_FORMULA>  (149) 
C17H20FNO2

>  <PUBCHEM_MOLECULAR_WEIGHT>  (149) 
289.344603

>  <PUBCHEM_MONOISOTOPIC_WEIGHT>  (149) 
289.147807

>  <PUBCHEM_OPENEYE_CAN_SMILES>  (149) 
CC1=CC=C(C=C1)OCC(CNCC2=CC=C(C=C2)F)O

>  <PUBCHEM_OPENEYE_ISO_SMILES>  (149) 
CC1=CC=C(C=C1)OCC(CNCC2=CC=C(C=C2)F)O

>  <PUBCHEM_TOTAL_CHARGE>  (149) 
0

>  <PUBCHEM_XLOGP3_AA>  (149) 
2.8

$$$$
Largest isolated from Written by BCL::WriteToMDL,2827417
     RDKit          2D

 56 57  0 56  0  0  0  0  0  0999 V2000
   -2.1186   -5.5632    0.0000 O   0  0  0  0  0  0  0  0  0  0  0  0
    2.1186    5.5632    0.0000 O   0  0  0  0  0  0  0  0  0  0  0  0
   -1.9818   -1.0653    0.0000 N   0  0  0  0  0  0  0  0  0  0  0  0
    1.9818    1.0653    0.0000 N   0  0  0  0  0  0  0  0  0  0  0  0
   -0.6606   -0.3551    0.0000 C   0  0  0  0  0  0  0  0  0  0  0  0
    0.6606    0.3551    0.0000 C   0  0  0  0  0  0  0  0  0  0  0  0
   -2.0274   -2.5646    0.0000 C   0  0  0  0  0  0  0  0  0  0  0  0
    2.0274    2.5646    0.0000 C   0  0  0  0  0  0  0  0  0  0  0  0
   -3.2575   -0.2761    0.0000 C   0  0  0  0  0  0  0  0  0  0  0  0
    3.2575    0.2761    0.0000 C   0  0  0  0  0  0  0  0  0  0  0  0
   -4.5331    0.5130    0.0000 C   0  0  0  0  0  0  0  0  0  0  0  0
    4.5331   -0.5130    0.0000 C   0  0  0  0  0  0  0  0  0  0  0  0
   -2.0730   -4.0639    0.0000 C   0  0  0  0  0  0  0  0  0  0  0  0
    2.0730    4.0639    0.0000 C   0  0  0  0  0  0  0  0  0  0  0  0
   -3.5267   -2.5190    0.0000 C   0  0  0  0  0  0  0  0  0  0  0  0
    3.5267    2.5190    0.0000 C   0  0  0  0  0  0  0  0  0  0  0  0
    4.4876   -2.0123    0.0000 C   0  0  0  0  0  0  0  0  0  0  0  0
   -4.4876    2.0123    0.0000 C   0  0  0  0  0  0  0  0  0  0  0  0
    5.8544    0.1972    0.0000 C   0  0  0  0  0  0  0  0  0  0  0  0
   -5.8544   -0.1972    0.0000 C   0  0  0  0  0  0  0  0  0  0  0  0
   -5.7632    2.8014    0.0000 C   0  0  0  0  0  0  0  0  0  0  0  0
    5.7632   -2.8014    0.0000 C   0  0  0  0  0  0  0  0  0  0  0  0
   -7.1300    0.5919    0.0000 C   0  0  0  0  0  0  0  0  0  0  0  0
    7.1300   -0.5919    0.0000 C   0  0  0  0  0  0  0  0  0  0  0  0
   -7.0844    2.0912    0.0000 C   0  0  0  0  0  0  0  0  0  0  0  0
    7.0844   -2.0912    0.0000 C   0  0  0  0  0  0  0  0  0  0  0  0
   -5.0260   -2.4734    0.0000 C   0  0  0  0  0  0  0  0  0  0  0  0
    5.0260    2.4734    0.0000 C   0  0  0  0  0  0  0  0  0  0  0  0
   -1.3708    0.9661    0.0000 H   0  0  0  0  0  0  0  0  0  0  0  0
    0.0496   -1.6763    0.0000 H   0  0  0  0  0  0  0  0  0  0  0  0
   -0.0496    1.6763    0.0000 H   0  0  0  0  0  0  0  0  0  0  0  0
    1.3708   -0.9661    0.0000 H   0  0  0  0  0  0  0  0  0  0  0  0
   -0.5281   -2.6102    0.0000 H   0  0  0  0  0  0  0  0  0  0  0  0
    0.5281    2.6102    0.0000 H   0  0  0  0  0  0  0  0  0  0  0  0
    2.4684   -0.9995    0.0000 H   0  0  0  0  0  0  0  0  0  0  0  0
    4.0466    1.5518    0.0000 H   0  0  0  0  0  0  0  0  0  0  0  0
   -4.0466   -1.5518    0.0000 H   0  0  0  0  0  0  0  0  0  0  0  0
   -2.4684    0.9995    0.0000 H   0  0  0  0  0  0  0  0  0  0  0  0
   -0.5737   -4.1095    0.0000 H   0  0  0  0  0  0  0  0  0  0  0  0
   -3.5723   -4.0183    0.0000 H   0  0  0  0  0  0  0  0  0  0  0  0
    0.5737    4.1095    0.0000 H   0  0  0  0  0  0  0  0  0  0  0  0
    3.5723    4.0183    0.0000 H   0  0  0  0  0  0  0  0  0  0  0  0
   -3.1663    2.7225    0.0000 H   0  0  0  0  0  0  0  0  0  0  0  0
    3.1663   -2.7225    0.0000 H   0  0  0  0  0  0  0  0  0  0  0  0
   -5.8999   -1.6965    0.0000 H   0  0  0  0  0  0  0  0  0  0  0  0
    5.8999    1.6965    0.0000 H   0  0  0  0  0  0  0  0  0  0  0  0
   -0.8429   -6.3523    0.0000 H   0  0  0  0  0  0  0  0  0  0  0  0
    0.8429    6.3523    0.0000 H   0  0  0  0  0  0  0  0  0  0  0  0
   -5.7176    4.3007    0.0000 H   0  0  0  0  0  0  0  0  0  0  0  0
    5.7176   -4.3007    0.0000 H   0  0  0  0  0  0  0  0  0  0  0  0
   -8.4512   -0.1183    0.0000 H   0  0  0  0  0  0  0  0  0  0  0  0
    8.4512    0.1183    0.0000 H   0  0  0  0  0  0  0  0  0  0  0  0
   -8.3601    2.8804    0.0000 H   0  0  0  0  0  0  0  0  0  0  0  0
    8.3601   -2.8804    0.0000 H   0  0  0  0  0  0  0  0  0  0  0  0
   -6.5253   -2.4278    0.0000 H   0  0  0  0  0  0  0  0  0  0  0  0
    6.5253    2.4278    0.0000 H   0  0  0  0  0  0  0  0  0  0  0  0
  1 13  1  0
  1 47  1  0
  2 14  1  0
  2 48  1  0
  3  5  1  0
  3  7  1  0
  3  9  1  0
  4  6  1  0
  4  8  1  0
  4 10  1  0
  5  6  1  0
  5 29  1  0
  5 30  1  0
  6 31  1  0
  6 32  1  0
  7 13  1  0
  7 15  1  0
  7 33  1  6
  8 14  1  0
  8 16  1  0
  8 34  1  6
  9 11  1  0
  9 37  1  0
  9 38  1  0
 10 12  1  0
 10 35  1  0
 10 36  1  0
 11 18  2  0
 11 20  1  0
 12 17  2  0
 12 19  1  0
 13 39  1  0
 13 40  1  0
 14 41  1  0
 14 42  1  0
 15 27  3  0
 16 28  3  0
 17 22  1  0
 17 44  1  0
 18 21  1  0
 18 43  1  0
 19 24  2  0
 19 46  1  0
 20 23  2  0
 20 45  1  0
 21 25  2  0
 21 49  1  0
 22 26  2  0
 22 50  1  0
 23 25  1  0
 23 51  1  0
 24 26  1  0
 24 52  1  0
 25 53  1  0
 26 54  1  0
 27 55  1  0
 28 56  1  0
M  STY  8   1 DAT   2 DAT   3 DAT   4 DAT   5 DAT   6 DAT   7 DAT   8 DAT
M  STY  8   9 DAT  10 DAT  11 DAT  12 DAT  13 DAT  14 DAT  15 DAT  16 DAT
M  STY  8  17 DAT  18 DAT  19 DAT  20 DAT  21 DAT  22 DAT  23 DAT  24 DAT
M  STY  8  25 DAT  26 DAT  27 DAT  28 DAT  29 DAT  30 DAT  31 DAT  32 DAT
M  STY  8  33 DAT  34 DAT  35 DAT  36 DAT  37 DAT  38 DAT  39 DAT  40 DAT
M  STY  8  41 DAT  42 DAT  43 DAT  44 DAT  45 DAT  46 DAT  47 DAT  48 DAT
M  STY  8  49 DAT  50 DAT  51 DAT  52 DAT  53 DAT  54 DAT  55 DAT  56 DAT
M  SAL   1  1   1
M  SED   1 [#8&h0]
M  SAL   2  1   2
M  SED   2 [#8&h0]
M  SAL   3  1   3
M  SED   3 [#7&h0]
M  SAL   4  1   4
M  SED   4 [#7&h0]
M  SAL   5  1   5
M  SED   5 [#6&h0]
M  SAL   6  1   6
M  SED   6 [#6&h0]
M  SAL   7  1   7
M  SED   7 [#6&h0]
M  SAL   8  1   8
M  SED   8 [#6&h0]
M  SAL   9  1   9
M  SED   9 [#6&h0]
M  SAL  10  1  10
M  SED  10 [#6&h0]
M  SAL  11  1  11
M  SED  11 [#6&h0]
M  SAL  12  1  12
M  SED  12 [#6&h0]
M  SAL  13  1  13
M  SED  13 [#6&h0]
M  SAL  14  1  14
M  SED  14 [#6&h0]
M  SAL  15  1  15
M  SED  15 [#6&h0]
M  SAL  16  1  16
M  SED  16 [#6&h0]
M  SAL  17  1  17
M  SED  17 [#6&h0]
M  SAL  18  1  18
M  SED  18 [#6&h0]
M  SAL  19  1  19
M  SED  19 [#6&h0]
M  SAL  20  1  20
M  SED  20 [#6&h0]
M  SAL  21  1  21
M  SED  21 [#6&h0]
M  SAL  22  1  22
M  SED  22 [#6&h0]
M  SAL  23  1  23
M  SED  23 [#6&h0]
M  SAL  24  1  24
M  SED  24 [#6&h0]
M  SAL  25  1  25
M  SED  25 [#6&h0]
M  SAL  26  1  26
M  SED  26 [#6&h0]
M  SAL  27  1  27
M  SED  27 [#6&h0]
M  SAL  28  1  28
M  SED  28 [#6&h0]
M  SAL  29  1  29
M  SED  29 [#1&h0]
M  SAL  30  1  30
M  SED  30 [#1&h0]
M  SAL  31  1  31
M  SED  31 [#1&h0]
M  SAL  32  1  32
M  SED  32 [#1&h0]
M  SAL  33  1  33
M  SED  33 [#1&h0]
M  SAL  34  1  34
M  SED  34 [#1&h0]
M  SAL  35  1  35
M  SED  35 [#1&h0]
M  SAL  36  1  36
M  SED  36 [#1&h0]
M  SAL  37  1  37
M  SED  37 [#1&h0]
M  SAL  38  1  38
M  SED  38 [#1&h0]
M  SAL  39  1  39
M  SED  39 [#1&h0]
M  SAL  40  1  40
M  SED  40 [#1&h0]
M  SAL  41  1  41
M  SED  41 [#1&h0]
M  SAL  42  1  42
M  SED  42 [#1&h0]
M  SAL  43  1  43
M  SED  43 [#1&h0]
M  SAL  44  1  44
M  SED  44 [#1&h0]
M  SAL  45  1  45
M  SED  45 [#1&h0]
M  SAL  46  1  46
M  SED  46 [#1&h0]
M  SAL  47  1  47
M  SED  47 [#1&h0]
M  SAL  48  1  48
M  SED  48 [#1&h0]
M  SAL  49  1  49
M  SED  49 [#1&h0]
M  SAL  50  1  50
M  SED  50 [#1&h0]
M  SAL  51  1  51
M  SED  51 [#1&h0]
M  SAL  52  1  52
M  SED  52 [#1&h0]
M  SAL  53  1  53
M  SED  53 [#1&h0]
M  SAL  54  1  54
M  SED  54 [#1&h0]
M  SAL  55  1  55
M  SED  55 [#1&h0]
M  SAL  56  1  56
M  SED  56 [#1&h0]
M  END
>  <Activity>  (150) 
0.01

>  <Mapped(file=2032.csv.activities,property=Cached(PUBCHEM_COMPOUND_CID))>  (150) 
100

>  <MatchIndices>  (150) 
214 

>  <PUBCHEM_ATOM_DEF_STEREO_COUNT>  (150) 
0

>  <PUBCHEM_ATOM_UDEF_STEREO_COUNT>  (150) 
2

>  <PUBCHEM_BONDANNOTATIONS>  (150) 
11  18  8
11  20  8
12  17  8
12  19  8
17  22  8
18  21  8
19  24  8
20  23  8
21  25  8
22  26  8
23  25  8
24  26  8
7  33  3
8  34  3

>  <PUBCHEM_BOND_DEF_STEREO_COUNT>  (150) 
0

>  <PUBCHEM_BOND_UDEF_STEREO_COUNT>  (150) 
0

>  <PUBCHEM_CACTVS_COMPLEXITY>  (150) 
471

>  <PUBCHEM_CACTVS_HBOND_ACCEPTOR>  (150) 
4

>  <PUBCHEM_CACTVS_HBOND_DONOR>  (150) 
2

>  <PUBCHEM_CACTVS_ROTATABLE_BOND>  (150) 
11

>  <PUBCHEM_CACTVS_SUBSKEYS>  (150) 
AAADceB7MAAAAAAAAAAAAAAAAAAAAAAAAAAwYAAAAAAAAAABQAAAHgAACAAADCjhmAYwAIMAAgDAGiBCAAiCAAAgAAAIiAAIBIgKcCKAkRGUYAhggACYiAcQgAAOAAAAAAAAAAAAAAAAAAAAAAAAAAAAAA==

>  <PUBCHEM_CACTVS_TAUTO_COUNT>  (150) 
1

>  <PUBCHEM_CACTVS_TPSA>  (150) 
46.9

>  <PUBCHEM_COMPONENT_COUNT>  (150) 
1

>  <PUBCHEM_COMPOUND_CANONICALIZED>  (150) 
1

>  <PUBCHEM_COMPOUND_CID>  (150) 
2827417

>  <PUBCHEM_COORDINATE_TYPE>  (150) 
1
5
255

>  <PUBCHEM_EXACT_MASS>  (150) 
376.215078

>  <PUBCHEM_HEAVY_ATOM_COUNT>  (150) 
28

>  <PUBCHEM_ISOTOPIC_ATOM_COUNT>  (150) 
0

>  <PUBCHEM_IUPAC_CAS_NAME>  (150) 
2-[2-[1-hydroxybut-3-yn-2-yl-(phenylmethyl)amino]ethyl-(phenylmethyl)amino]-3-butyn-1-ol

>  <PUBCHEM_IUPAC_INCHI>  (150) 
InChI=1S/C24H28N2O2/c1-3-23(19-27)25(17-21-11-7-5-8-12-21)15-16-26(24(4-2)20-28)18-22-13-9-6-10-14-22/h1-2,5-14,23-24,27-28H,15-20H2

>  <PUBCHEM_IUPAC_INCHIKEY>  (150) 
SYZUQSPEEKTLNH-UHFFFAOYSA-N

>  <PUBCHEM_IUPAC_NAME>  (150) 
2-[benzyl-[2-[benzyl(1-hydroxybut-3-yn-2-yl)amino]ethyl]amino]but-3-yn-1-ol

>  <PUBCHEM_IUPAC_OPENEYE_NAME>  (150) 
2-[benzyl-[2-[benzyl-[1-(hydroxymethyl)prop-2-ynyl]amino]ethyl]amino]but-3-yn-1-ol

>  <PUBCHEM_IUPAC_SYSTEMATIC_NAME>  (150) 
2-[2-[1-oxidanylbut-3-yn-2-yl-(phenylmethyl)amino]ethyl-(phenylmethyl)amino]but-3-yn-1-ol

>  <PUBCHEM_IUPAC_TRADITIONAL_NAME>  (150) 
2-[benzyl-[2-[benzyl(1-methylolprop-2-ynyl)amino]ethyl]amino]but-3-yn-1-ol

>  <PUBCHEM_MOLECULAR_FORMULA>  (150) 
C24H28N2O2

>  <PUBCHEM_MOLECULAR_WEIGHT>  (150) 
376.49132

>  <PUBCHEM_MONOISOTOPIC_WEIGHT>  (150) 
376.215078

>  <PUBCHEM_OPENEYE_CAN_SMILES>  (150) 
C#CC(CO)N(CCN(CC1=CC=CC=C1)C(CO)C#C)CC2=CC=CC=C2

>  <PUBCHEM_OPENEYE_ISO_SMILES>  (150) 
C#CC(CO)N(CCN(CC1=CC=CC=C1)C(CO)C#C)CC2=CC=CC=C2

>  <PUBCHEM_TOTAL_CHARGE>  (150) 
0

>  <PUBCHEM_XLOGP3_AA>  (150) 
2.2

$$$$
Largest isolated from Written by BCL::WriteToMDL,2846545
     RDKit          2D

 44 46  0 44  0  0  0  0  0  0999 V2000
   -7.7467   -0.8535    0.0000 O   0  0  0  0  0  0  0  0  0  0  0  0
    1.0819    0.8946    0.0000 N   0  0  0  0  0  0  0  0  0  0  0  0
    2.0699   -0.2340    0.0000 C   0  0  0  0  0  0  0  0  0  0  0  0
    2.6123   -1.6325    0.0000 C   0  0  0  0  0  0  0  0  0  0  0  0
    3.0098    0.9350    0.0000 C   0  0  0  0  0  0  0  0  0  0  0  0
    4.0947   -1.8620    0.0000 C   0  0  0  0  0  0  0  0  0  0  0  0
    4.4921    0.7055    0.0000 C   0  0  0  0  0  0  0  0  0  0  0  0
    5.0346   -0.6930    0.0000 C   0  0  0  0  0  0  0  0  0  0  0  0
   -0.3896    0.6033    0.0000 C   0  0  0  0  0  0  0  0  0  0  0  0
    5.4321    1.8745    0.0000 C   0  0  0  0  0  0  0  0  0  0  0  0
    6.5169   -0.9225    0.0000 C   0  0  0  0  0  0  0  0  0  0  0  0
   -1.8610    0.3119    0.0000 C   0  0  0  0  0  0  0  0  0  0  0  0
    6.9144    1.6450    0.0000 C   0  0  0  0  0  0  0  0  0  0  0  0
    7.4568    0.2466    0.0000 C   0  0  0  0  0  0  0  0  0  0  0  0
   -3.3324    0.0206    0.0000 C   0  0  0  0  0  0  0  0  0  0  0  0
   -4.3205    1.1492    0.0000 C   0  0  0  0  0  0  0  0  0  0  0  0
   -3.8158   -1.3994    0.0000 C   0  0  0  0  0  0  0  0  0  0  0  0
   -5.7919    0.8578    0.0000 C   0  0  0  0  0  0  0  0  0  0  0  0
   -5.2873   -1.6908    0.0000 C   0  0  0  0  0  0  0  0  0  0  0  0
   -6.2753   -0.5622    0.0000 C   0  0  0  0  0  0  0  0  0  0  0  0
   -8.7348    0.2751    0.0000 C   0  0  0  0  0  0  0  0  0  0  0  0
    1.1151   -0.9854    0.0000 H   0  0  0  0  0  0  0  0  0  0  0  0
    2.6438   -3.1322    0.0000 H   0  0  0  0  0  0  0  0  0  0  0  0
    1.4205   -1.8685    0.0000 H   0  0  0  0  0  0  0  0  0  0  0  0
    2.2116    1.5107    0.0000 H   0  0  0  0  0  0  0  0  0  0  0  0
    3.4932    2.3550    0.0000 H   0  0  0  0  0  0  0  0  0  0  0  0
    5.4091   -2.5846    0.0000 H   0  0  0  0  0  0  0  0  0  0  0  0
    3.6113   -3.2820    0.0000 H   0  0  0  0  0  0  0  0  0  0  0  0
    1.2831    1.8580    0.0000 H   0  0  0  0  0  0  0  0  0  0  0  0
   -0.6809    2.0747    0.0000 H   0  0  0  0  0  0  0  0  0  0  0  0
   -0.2797   -0.8927    0.0000 H   0  0  0  0  0  0  0  0  0  0  0  0
    4.8896    3.2730    0.0000 H   0  0  0  0  0  0  0  0  0  0  0  0
    7.0594   -2.3209    0.0000 H   0  0  0  0  0  0  0  0  0  0  0  0
   -2.1524    1.7833    0.0000 H   0  0  0  0  0  0  0  0  0  0  0  0
   -1.5696   -1.1595    0.0000 H   0  0  0  0  0  0  0  0  0  0  0  0
    7.8543    2.8141    0.0000 H   0  0  0  0  0  0  0  0  0  0  0  0
    8.9392    0.0171    0.0000 H   0  0  0  0  0  0  0  0  0  0  0  0
   -3.8371    2.5691    0.0000 H   0  0  0  0  0  0  0  0  0  0  0  0
   -2.8278   -2.5280    0.0000 H   0  0  0  0  0  0  0  0  0  0  0  0
   -6.7799    1.9864    0.0000 H   0  0  0  0  0  0  0  0  0  0  0  0
   -5.7707   -3.1107    0.0000 H   0  0  0  0  0  0  0  0  0  0  0  0
   -9.8634   -0.7129    0.0000 H   0  0  0  0  0  0  0  0  0  0  0  0
   -7.6061    1.2632    0.0000 H   0  0  0  0  0  0  0  0  0  0  0  0
   -9.7228    1.4037    0.0000 H   0  0  0  0  0  0  0  0  0  0  0  0
  1 20  1  0
  1 21  1  0
  2  3  1  0
  2  9  1  0
  2 29  1  0
  3  4  1  0
  3  5  1  0
  3 22  1  1
  4  6  1  0
  4 23  1  0
  4 24  1  0
  5  7  1  0
  5 25  1  0
  5 26  1  0
  6  8  1  0
  6 27  1  0
  6 28  1  0
  7  8  2  0
  7 10  1  0
  8 11  1  0
  9 12  1  0
  9 30  1  0
  9 31  1  0
 10 13  2  0
 10 32  1  0
 11 14  2  0
 11 33  1  0
 12 15  1  0
 12 34  1  0
 12 35  1  0
 13 14  1  0
 13 36  1  0
 14 37  1  0
 15 16  2  0
 15 17  1  0
 16 18  1  0
 16 38  1  0
 17 19  2  0
 17 39  1  0
 18 20  2  0
 18 40  1  0
 19 20  1  0
 19 41  1  0
 21 42  1  0
 21 43  1  0
 21 44  1  0
M  STY  8   1 DAT   2 DAT   3 DAT   4 DAT   5 DAT   6 DAT   7 DAT   8 DAT
M  STY  8   9 DAT  10 DAT  11 DAT  12 DAT  13 DAT  14 DAT  15 DAT  16 DAT
M  STY  8  17 DAT  18 DAT  19 DAT  20 DAT  21 DAT  22 DAT  23 DAT  24 DAT
M  STY  8  25 DAT  26 DAT  27 DAT  28 DAT  29 DAT  30 DAT  31 DAT  32 DAT
M  STY  8  33 DAT  34 DAT  35 DAT  36 DAT  37 DAT  38 DAT  39 DAT  40 DAT
M  STY  4  41 DAT  42 DAT  43 DAT  44 DAT
M  SAL   1  1   1
M  SED   1 [#8&h0]
M  SAL   2  1   2
M  SED   2 [#7&h0]
M  SAL   3  1   3
M  SED   3 [#6&h0]
M  SAL   4  1   4
M  SED   4 [#6&h0]
M  SAL   5  1   5
M  SED   5 [#6&h0]
M  SAL   6  1   6
M  SED   6 [#6&h0]
M  SAL   7  1   7
M  SED   7 [#6&h0]
M  SAL   8  1   8
M  SED   8 [#6&h0]
M  SAL   9  1   9
M  SED   9 [#6&h0]
M  SAL  10  1  10
M  SED  10 [#6&h0]
M  SAL  11  1  11
M  SED  11 [#6&h0]
M  SAL  12  1  12
M  SED  12 [#6&h0]
M  SAL  13  1  13
M  SED  13 [#6&h0]
M  SAL  14  1  14
M  SED  14 [#6&h0]
M  SAL  15  1  15
M  SED  15 [#6&h0]
M  SAL  16  1  16
M  SED  16 [#6&h0]
M  SAL  17  1  17
M  SED  17 [#6&h0]
M  SAL  18  1  18
M  SED  18 [#6&h0]
M  SAL  19  1  19
M  SED  19 [#6&h0]
M  SAL  20  1  20
M  SED  20 [#6&h0]
M  SAL  21  1  21
M  SED  21 [#6&h0]
M  SAL  22  1  22
M  SED  22 [#1&h0]
M  SAL  23  1  23
M  SED  23 [#1&h0]
M  SAL  24  1  24
M  SED  24 [#1&h0]
M  SAL  25  1  25
M  SED  25 [#1&h0]
M  SAL  26  1  26
M  SED  26 [#1&h0]
M  SAL  27  1  27
M  SED  27 [#1&h0]
M  SAL  28  1  28
M  SED  28 [#1&h0]
M  SAL  29  1  29
M  SED  29 [#1&h0]
M  SAL  30  1  30
M  SED  30 [#1&h0]
M  SAL  31  1  31
M  SED  31 [#1&h0]
M  SAL  32  1  32
M  SED  32 [#1&h0]
M  SAL  33  1  33
M  SED  33 [#1&h0]
M  SAL  34  1  34
M  SED  34 [#1&h0]
M  SAL  35  1  35
M  SED  35 [#1&h0]
M  SAL  36  1  36
M  SED  36 [#1&h0]
M  SAL  37  1  37
M  SED  37 [#1&h0]
M  SAL  38  1  38
M  SED  38 [#1&h0]
M  SAL  39  1  39
M  SED  39 [#1&h0]
M  SAL  40  1  40
M  SED  40 [#1&h0]
M  SAL  41  1  41
M  SED  41 [#1&h0]
M  SAL  42  1  42
M  SED  42 [#1&h0]
M  SAL  43  1  43
M  SED  43 [#1&h0]
M  SAL  44  1  44
M  SED  44 [#1&h0]
M  END
>  <Activity>  (151) 
0.01

>  <Mapped(file=2032.csv.activities,property=Cached(PUBCHEM_COMPOUND_CID))>  (151) 
100

>  <MatchIndices>  (151) 
94 

>  <PUBCHEM_ATOM_DEF_STEREO_COUNT>  (151) 
0

>  <PUBCHEM_ATOM_UDEF_STEREO_COUNT>  (151) 
1

>  <PUBCHEM_BONDANNOTATIONS>  (151) 
10  13  8
11  14  8
13  14  8
15  16  8
15  17  8
16  18  8
17  19  8
18  20  8
19  20  8
3  2  3
7  10  8
7  8  8
8  11  8

>  <PUBCHEM_BOND_DEF_STEREO_COUNT>  (151) 
0

>  <PUBCHEM_BOND_UDEF_STEREO_COUNT>  (151) 
0

>  <PUBCHEM_CACTVS_COMPLEXITY>  (151) 
298

>  <PUBCHEM_CACTVS_HBOND_ACCEPTOR>  (151) 
2

>  <PUBCHEM_CACTVS_HBOND_DONOR>  (151) 
1

>  <PUBCHEM_CACTVS_ROTATABLE_BOND>  (151) 
5

>  <PUBCHEM_CACTVS_SUBSKEYS>  (151) 
AAADceB6IAAAAAAAAAAAAAAAAAAAAAAAAAAwYMAAAAAAAADBQAAAHgAQAAAADCzBmAYyBoLABACAAiBCAAACCAAgIAAIiIAOCIgMJiKEsRuEMCAk0BGIqAeQwIAOoAAAAAAQAABQAACAACAAAAAAAAAAAA==

>  <PUBCHEM_CACTVS_TAUTO_COUNT>  (151) 
1

>  <PUBCHEM_CACTVS_TPSA>  (151) 
21.3

>  <PUBCHEM_COMPONENT_COUNT>  (151) 
1

>  <PUBCHEM_COMPOUND_CANONICALIZED>  (151) 
1

>  <PUBCHEM_COMPOUND_CID>  (151) 
2846545

>  <PUBCHEM_COORDINATE_TYPE>  (151) 
1
5
255

>  <PUBCHEM_EXACT_MASS>  (151) 
281.177964

>  <PUBCHEM_HEAVY_ATOM_COUNT>  (151) 
21

>  <PUBCHEM_ISOTOPIC_ATOM_COUNT>  (151) 
0

>  <PUBCHEM_IUPAC_CAS_NAME>  (151) 
N-[2-(4-methoxyphenyl)ethyl]-1,2,3,4-tetrahydronaphthalen-2-amine

>  <PUBCHEM_IUPAC_INCHI>  (151) 
InChI=1S/C19H23NO/c1-21-19-10-6-15(7-11-19)12-13-20-18-9-8-16-4-2-3-5-17(16)14-18/h2-7,10-11,18,20H,8-9,12-14H2,1H3

>  <PUBCHEM_IUPAC_INCHIKEY>  (151) 
UIAIHSBNAKWFOI-UHFFFAOYSA-N

>  <PUBCHEM_IUPAC_NAME>  (151) 
N-[2-(4-methoxyphenyl)ethyl]-1,2,3,4-tetrahydronaphthalen-2-amine

>  <PUBCHEM_IUPAC_OPENEYE_NAME>  (151) 
N-[2-(4-methoxyphenyl)ethyl]tetralin-2-amine

>  <PUBCHEM_IUPAC_SYSTEMATIC_NAME>  (151) 
N-[2-(4-methoxyphenyl)ethyl]-1,2,3,4-tetrahydronaphthalen-2-amine

>  <PUBCHEM_IUPAC_TRADITIONAL_NAME>  (151) 
2-(4-methoxyphenyl)ethyl-tetralin-2-yl-amine

>  <PUBCHEM_MOLECULAR_FORMULA>  (151) 
C19H23NO

>  <PUBCHEM_MOLECULAR_WEIGHT>  (151) 
281.39202

>  <PUBCHEM_MONOISOTOPIC_WEIGHT>  (151) 
281.177964

>  <PUBCHEM_OPENEYE_CAN_SMILES>  (151) 
COC1=CC=C(C=C1)CCNC2CCC3=CC=CC=C3C2

>  <PUBCHEM_OPENEYE_ISO_SMILES>  (151) 
COC1=CC=C(C=C1)CCNC2CCC3=CC=CC=C3C2

>  <PUBCHEM_TOTAL_CHARGE>  (151) 
0

>  <PUBCHEM_XLOGP3>  (151) 
4.3

$$$$
Largest isolated from Written by BCL::WriteToMDL,2942461
     RDKit          2D

 30 31  0 30  0  0  0  0  0  0999 V2000
   -7.1476    0.0911    0.0000 Br  0  0  0  0  0  0  0  0  0  0  0  0
   -1.9345    0.9302    0.0000 S   0  0  0  0  0  0  0  0  0  0  0  0
   -4.6075    0.9235    0.0000 S   0  0  0  0  0  0  0  0  0  0  0  0
   -1.2502   -0.4046    0.0000 O   0  0  0  0  0  0  0  0  0  0  0  0
   -2.6188    2.2650    0.0000 O   0  0  0  0  0  0  0  0  0  0  0  0
   -0.5997    1.6145    0.0000 N   0  0  0  0  0  0  0  0  0  0  0  0
    0.6604    0.8007    0.0000 C   0  0  0  0  0  0  0  0  0  0  0  0
    1.9204   -0.0131    0.0000 C   0  0  0  0  0  0  0  0  0  0  0  0
    1.4742    2.0607    0.0000 C   0  0  0  0  0  0  0  0  0  0  0  0
   -3.2693    0.2459    0.0000 C   0  0  0  0  0  0  0  0  0  0  0  0
    1.8456   -1.5113    0.0000 C   0  0  0  0  0  0  0  0  0  0  0  0
    3.2552    0.6712    0.0000 C   0  0  0  0  0  0  0  0  0  0  0  0
   -3.5003   -1.2363    0.0000 C   0  0  0  0  0  0  0  0  0  0  0  0
    3.1057   -2.3251    0.0000 C   0  0  0  0  0  0  0  0  0  0  0  0
    4.5152   -0.1426    0.0000 C   0  0  0  0  0  0  0  0  0  0  0  0
    4.4405   -1.6408    0.0000 C   0  0  0  0  0  0  0  0  0  0  0  0
   -4.9812   -1.4746    0.0000 C   0  0  0  0  0  0  0  0  0  0  0  0
   -5.6655   -0.1398    0.0000 C   0  0  0  0  0  0  0  0  0  0  0  0
   -0.1535   -0.4594    0.0000 H   0  0  0  0  0  0  0  0  0  0  0  0
   -0.7081    3.1106    0.0000 H   0  0  0  0  0  0  0  0  0  0  0  0
    0.3227    3.0221    0.0000 H   0  0  0  0  0  0  0  0  0  0  0  0
    2.3124    1.7745    0.0000 H   0  0  0  0  0  0  0  0  0  0  0  0
    2.2880    3.3208    0.0000 H   0  0  0  0  0  0  0  0  0  0  0  0
    0.5108   -2.1956    0.0000 H   0  0  0  0  0  0  0  0  0  0  0  0
    3.2993    1.5558    0.0000 H   0  0  0  0  0  0  0  0  0  0  0  0
   -2.4369   -2.2943    0.0000 H   0  0  0  0  0  0  0  0  0  0  0  0
    3.0309   -3.8232    0.0000 H   0  0  0  0  0  0  0  0  0  0  0  0
    5.8500    0.5417    0.0000 H   0  0  0  0  0  0  0  0  0  0  0  0
    5.7005   -2.4546    0.0000 H   0  0  0  0  0  0  0  0  0  0  0  0
   -5.6588   -2.8128    0.0000 H   0  0  0  0  0  0  0  0  0  0  0  0
  1 18  1  0
  2  4  2  0
  2  5  2  0
  2  6  1  0
  2 10  1  0
  3 10  1  0
  3 18  1  0
  6  7  1  0
  6 20  1  0
  7  8  1  0
  7  9  1  0
  7 19  1  1
  8 11  2  0
  8 12  1  0
  9 21  1  0
  9 22  1  0
  9 23  1  0
 10 13  2  0
 11 14  1  0
 11 24  1  0
 12 15  2  0
 12 25  1  0
 13 17  1  0
 13 26  1  0
 14 16  2  0
 14 27  1  0
 15 16  1  0
 15 28  1  0
 16 29  1  0
 17 18  2  0
 17 30  1  0
M  STY  8   1 DAT   2 DAT   3 DAT   4 DAT   5 DAT   6 DAT   7 DAT   8 DAT
M  STY  8   9 DAT  10 DAT  11 DAT  12 DAT  13 DAT  14 DAT  15 DAT  16 DAT
M  STY  8  17 DAT  18 DAT  19 DAT  20 DAT  21 DAT  22 DAT  23 DAT  24 DAT
M  STY  6  25 DAT  26 DAT  27 DAT  28 DAT  29 DAT  30 DAT
M  SAL   1  1   1
M  SED   1 [#35&h0]
M  SAL   2  1   2
M  SED   2 [#16&h0]
M  SAL   3  1   3
M  SED   3 [#16&h0]
M  SAL   4  1   4
M  SED   4 [#8&h0]
M  SAL   5  1   5
M  SED   5 [#8&h0]
M  SAL   6  1   6
M  SED   6 [#7&h0]
M  SAL   7  1   7
M  SED   7 [#6&h0]
M  SAL   8  1   8
M  SED   8 [#6&h0]
M  SAL   9  1   9
M  SED   9 [#6&h0]
M  SAL  10  1  10
M  SED  10 [#6&h0]
M  SAL  11  1  11
M  SED  11 [#6&h0]
M  SAL  12  1  12
M  SED  12 [#6&h0]
M  SAL  13  1  13
M  SED  13 [#6&h0]
M  SAL  14  1  14
M  SED  14 [#6&h0]
M  SAL  15  1  15
M  SED  15 [#6&h0]
M  SAL  16  1  16
M  SED  16 [#6&h0]
M  SAL  17  1  17
M  SED  17 [#6&h0]
M  SAL  18  1  18
M  SED  18 [#6&h0]
M  SAL  19  1  19
M  SED  19 [#1&h0]
M  SAL  20  1  20
M  SED  20 [#1&h0]
M  SAL  21  1  21
M  SED  21 [#1&h0]
M  SAL  22  1  22
M  SED  22 [#1&h0]
M  SAL  23  1  23
M  SED  23 [#1&h0]
M  SAL  24  1  24
M  SED  24 [#1&h0]
M  SAL  25  1  25
M  SED  25 [#1&h0]
M  SAL  26  1  26
M  SED  26 [#1&h0]
M  SAL  27  1  27
M  SED  27 [#1&h0]
M  SAL  28  1  28
M  SED  28 [#1&h0]
M  SAL  29  1  29
M  SED  29 [#1&h0]
M  SAL  30  1  30
M  SED  30 [#1&h0]
M  END
>  <Activity>  (152) 
0.01

>  <Mapped(file=2032.csv.activities,property=Cached(PUBCHEM_COMPOUND_CID))>  (152) 
100

>  <MatchIndices>  (152) 
73 

>  <PUBCHEM_ATOM_DEF_STEREO_COUNT>  (152) 
0

>  <PUBCHEM_ATOM_UDEF_STEREO_COUNT>  (152) 
1

>  <PUBCHEM_BONDANNOTATIONS>  (152) 
10  13  8
11  14  8
12  15  8
13  17  8
14  16  8
15  16  8
17  18  8
3  10  8
3  18  8
7  9  3
8  11  8
8  12  8

>  <PUBCHEM_BOND_DEF_STEREO_COUNT>  (152) 
0

>  <PUBCHEM_BOND_UDEF_STEREO_COUNT>  (152) 
0

>  <PUBCHEM_CACTVS_COMPLEXITY>  (152) 
363

>  <PUBCHEM_CACTVS_HBOND_ACCEPTOR>  (152) 
4

>  <PUBCHEM_CACTVS_HBOND_DONOR>  (152) 
1

>  <PUBCHEM_CACTVS_ROTATABLE_BOND>  (152) 
4

>  <PUBCHEM_CACTVS_SUBSKEYS>  (152) 
AAADccByMABgEAAAAAAAAAAAAAAAASAAAAAwAAAAAAAAAAABwAAAHARQQAABLCjBWAQyAYBAAAqEAiBCAHDDAZAgCBRIiJgABKgIICKgkRGAIABgkAAoihcQgIAOAAAAAAAAAAAAAAAAAAAAAAAAAAAAAA==

>  <PUBCHEM_CACTVS_TAUTO_COUNT>  (152) 
1

>  <PUBCHEM_CACTVS_TPSA>  (152) 
82.8

>  <PUBCHEM_COMPONENT_COUNT>  (152) 
1

>  <PUBCHEM_COMPOUND_CANONICALIZED>  (152) 
1

>  <PUBCHEM_COMPOUND_CID>  (152) 
2942461

>  <PUBCHEM_COORDINATE_TYPE>  (152) 
1
5
255

>  <PUBCHEM_EXACT_MASS>  (152) 
344.949283

>  <PUBCHEM_HEAVY_ATOM_COUNT>  (152) 
18

>  <PUBCHEM_ISOTOPIC_ATOM_COUNT>  (152) 
0

>  <PUBCHEM_IUPAC_CAS_NAME>  (152) 
5-bromo-N-(1-phenylethyl)-2-thiophenesulfonamide

>  <PUBCHEM_IUPAC_INCHI>  (152) 
InChI=1S/C12H12BrNO2S2/c1-9(10-5-3-2-4-6-10)14-18(15,16)12-8-7-11(13)17-12/h2-9,14H,1H3

>  <PUBCHEM_IUPAC_INCHIKEY>  (152) 
NURPASYGVRKHGU-UHFFFAOYSA-N

>  <PUBCHEM_IUPAC_NAME>  (152) 
5-bromo-N-(1-phenylethyl)thiophene-2-sulfonamide

>  <PUBCHEM_IUPAC_OPENEYE_NAME>  (152) 
5-bromo-N-(1-phenylethyl)thiophene-2-sulfonamide

>  <PUBCHEM_IUPAC_SYSTEMATIC_NAME>  (152) 
5-bromanyl-N-(1-phenylethyl)thiophene-2-sulfonamide

>  <PUBCHEM_IUPAC_TRADITIONAL_NAME>  (152) 
5-bromo-N-(1-phenylethyl)thiophene-2-sulfonamide

>  <PUBCHEM_MOLECULAR_FORMULA>  (152) 
C12H12BrNO2S2

>  <PUBCHEM_MOLECULAR_WEIGHT>  (152) 
346.26318

>  <PUBCHEM_MONOISOTOPIC_WEIGHT>  (152) 
344.949283

>  <PUBCHEM_OPENEYE_CAN_SMILES>  (152) 
CC(C1=CC=CC=C1)NS(=O)(=O)C2=CC=C(S2)Br

>  <PUBCHEM_OPENEYE_ISO_SMILES>  (152) 
CC(C1=CC=CC=C1)NS(=O)(=O)C2=CC=C(S2)Br

>  <PUBCHEM_TOTAL_CHARGE>  (152) 
0

>  <PUBCHEM_XLOGP3_AA>  (152) 
3.8

$$$$
Largest isolated from Written by BCL::WriteToMDL,3144932
     RDKit          2D

 41 44  0 41  0  0  0  0  0  0999 V2000
   -2.7170    3.8694    0.0000 S   0  0  0  0  0  0  0  0  0  0  0  0
   -0.2904   -0.7476    0.0000 O   0  0  0  0  0  0  0  0  0  0  0  0
   -1.7766    1.3673    0.0000 N   0  0  0  0  0  0  0  0  0  0  0  0
   -0.1400    3.1595    0.0000 N   0  0  0  0  0  0  0  0  0  0  0  0
    3.5642   -2.6123    0.0000 N   0  0  0  0  0  0  0  0  0  0  0  0
    0.6009    1.8553    0.0000 C   0  0  0  0  0  0  0  0  0  0  0  0
    1.5968    0.7335    0.0000 C   0  0  0  0  0  0  0  0  0  0  0  0
    2.5926   -0.3882    0.0000 C   0  0  0  0  0  0  0  0  0  0  0  0
   -0.4106    0.7476    0.0000 C   0  0  0  0  0  0  0  0  0  0  0  0
    4.0855   -0.2419    0.0000 C   0  0  0  0  0  0  0  0  0  0  0  0
   -1.6093    2.8579    0.0000 C   0  0  0  0  0  0  0  0  0  0  0  0
   -3.0808    0.6264    0.0000 C   0  0  0  0  0  0  0  0  0  0  0  0
    4.6860   -1.6164    0.0000 C   0  0  0  0  0  0  0  0  0  0  0  0
    2.2705   -1.8532    0.0000 C   0  0  0  0  0  0  0  0  0  0  0  0
   -4.3851   -0.1145    0.0000 C   0  0  0  0  0  0  0  0  0  0  0  0
    4.9756    0.9655    0.0000 C   0  0  0  0  0  0  0  0  0  0  0  0
    6.1766   -1.7837    0.0000 C   0  0  0  0  0  0  0  0  0  0  0  0
    6.4663    0.7982    0.0000 C   0  0  0  0  0  0  0  0  0  0  0  0
    7.0668   -0.5764    0.0000 C   0  0  0  0  0  0  0  0  0  0  0  0
   -5.6789    0.6446    0.0000 C   0  0  0  0  0  0  0  0  0  0  0  0
   -4.3956   -1.6144    0.0000 C   0  0  0  0  0  0  0  0  0  0  0  0
   -6.9831   -0.0962    0.0000 C   0  0  0  0  0  0  0  0  0  0  0  0
   -5.6999   -2.3553    0.0000 C   0  0  0  0  0  0  0  0  0  0  0  0
   -6.9936   -1.5962    0.0000 C   0  0  0  0  0  0  0  0  0  0  0  0
    1.8206    2.7284    0.0000 H   0  0  0  0  0  0  0  0  0  0  0  0
    2.7185    1.7294    0.0000 H   0  0  0  0  0  0  0  0  0  0  0  0
    0.6048   -0.3916    0.0000 H   0  0  0  0  0  0  0  0  0  0  0  0
    0.4797    4.5255    0.0000 H   0  0  0  0  0  0  0  0  0  0  0  0
   -3.8217    1.9307    0.0000 H   0  0  0  0  0  0  0  0  0  0  0  0
   -2.3400   -0.6778    0.0000 H   0  0  0  0  0  0  0  0  0  0  0  0
    0.8959   -2.4537    0.0000 H   0  0  0  0  0  0  0  0  0  0  0  0
    3.7106   -4.1051    0.0000 H   0  0  0  0  0  0  0  0  0  0  0  0
    4.3751    2.3400    0.0000 H   0  0  0  0  0  0  0  0  0  0  0  0
    6.7771   -3.1582    0.0000 H   0  0  0  0  0  0  0  0  0  0  0  0
    7.3564    2.0055    0.0000 H   0  0  0  0  0  0  0  0  0  0  0  0
    8.5574   -0.7436    0.0000 H   0  0  0  0  0  0  0  0  0  0  0  0
   -5.6683    2.1446    0.0000 H   0  0  0  0  0  0  0  0  0  0  0  0
   -3.1019   -2.3735    0.0000 H   0  0  0  0  0  0  0  0  0  0  0  0
   -8.2769    0.6628    0.0000 H   0  0  0  0  0  0  0  0  0  0  0  0
   -5.7104   -3.8553    0.0000 H   0  0  0  0  0  0  0  0  0  0  0  0
   -8.2979   -2.3371    0.0000 H   0  0  0  0  0  0  0  0  0  0  0  0
  1 11  2  0
  2  9  2  0
  3  9  1  0
  3 11  1  0
  3 12  1  0
  4  6  1  0
  4 11  1  0
  4 28  1  0
  5 13  1  0
  5 14  1  0
  5 32  1  0
  6  7  1  0
  6  9  1  0
  6 25  1  6
  7  8  1  0
  7 26  1  0
  7 27  1  0
  8 10  1  0
  8 14  2  0
 10 13  2  0
 10 16  1  0
 12 15  1  0
 12 29  1  0
 12 30  1  0
 13 17  1  0
 14 31  1  0
 15 20  2  0
 15 21  1  0
 16 18  2  0
 16 33  1  0
 17 19  2  0
 17 34  1  0
 18 19  1  0
 18 35  1  0
 19 36  1  0
 20 22  1  0
 20 37  1  0
 21 23  2  0
 21 38  1  0
 22 24  2  0
 22 39  1  0
 23 24  1  0
 23 40  1  0
 24 41  1  0
M  STY  8   1 DAT   2 DAT   3 DAT   4 DAT   5 DAT   6 DAT   7 DAT   8 DAT
M  STY  8   9 DAT  10 DAT  11 DAT  12 DAT  13 DAT  14 DAT  15 DAT  16 DAT
M  STY  8  17 DAT  18 DAT  19 DAT  20 DAT  21 DAT  22 DAT  23 DAT  24 DAT
M  STY  8  25 DAT  26 DAT  27 DAT  28 DAT  29 DAT  30 DAT  31 DAT  32 DAT
M  STY  8  33 DAT  34 DAT  35 DAT  36 DAT  37 DAT  38 DAT  39 DAT  40 DAT
M  STY  1  41 DAT
M  SAL   1  1   1
M  SED   1 [#16&h0]
M  SAL   2  1   2
M  SED   2 [#8&h0]
M  SAL   3  1   3
M  SED   3 [#7&h0]
M  SAL   4  1   4
M  SED   4 [#7&h0]
M  SAL   5  1   5
M  SED   5 [#7&h0]
M  SAL   6  1   6
M  SED   6 [#6&h0]
M  SAL   7  1   7
M  SED   7 [#6&h0]
M  SAL   8  1   8
M  SED   8 [#6&h0]
M  SAL   9  1   9
M  SED   9 [#6&h0]
M  SAL  10  1  10
M  SED  10 [#6&h0]
M  SAL  11  1  11
M  SED  11 [#6&h0]
M  SAL  12  1  12
M  SED  12 [#6&h0]
M  SAL  13  1  13
M  SED  13 [#6&h0]
M  SAL  14  1  14
M  SED  14 [#6&h0]
M  SAL  15  1  15
M  SED  15 [#6&h0]
M  SAL  16  1  16
M  SED  16 [#6&h0]
M  SAL  17  1  17
M  SED  17 [#6&h0]
M  SAL  18  1  18
M  SED  18 [#6&h0]
M  SAL  19  1  19
M  SED  19 [#6&h0]
M  SAL  20  1  20
M  SED  20 [#6&h0]
M  SAL  21  1  21
M  SED  21 [#6&h0]
M  SAL  22  1  22
M  SED  22 [#6&h0]
M  SAL  23  1  23
M  SED  23 [#6&h0]
M  SAL  24  1  24
M  SED  24 [#6&h0]
M  SAL  25  1  25
M  SED  25 [#1&h0]
M  SAL  26  1  26
M  SED  26 [#1&h0]
M  SAL  27  1  27
M  SED  27 [#1&h0]
M  SAL  28  1  28
M  SED  28 [#1&h0]
M  SAL  29  1  29
M  SED  29 [#1&h0]
M  SAL  30  1  30
M  SED  30 [#1&h0]
M  SAL  31  1  31
M  SED  31 [#1&h0]
M  SAL  32  1  32
M  SED  32 [#1&h0]
M  SAL  33  1  33
M  SED  33 [#1&h0]
M  SAL  34  1  34
M  SED  34 [#1&h0]
M  SAL  35  1  35
M  SED  35 [#1&h0]
M  SAL  36  1  36
M  SED  36 [#1&h0]
M  SAL  37  1  37
M  SED  37 [#1&h0]
M  SAL  38  1  38
M  SED  38 [#1&h0]
M  SAL  39  1  39
M  SED  39 [#1&h0]
M  SAL  40  1  40
M  SED  40 [#1&h0]
M  SAL  41  1  41
M  SED  41 [#1&h0]
M  END
>  <Activity>  (153) 
0.01

>  <Mapped(file=2032.csv.activities,property=Cached(PUBCHEM_COMPOUND_CID))>  (153) 
100

>  <MatchIndices>  (153) 
177 

>  <PUBCHEM_ATOM_DEF_STEREO_COUNT>  (153) 
0

>  <PUBCHEM_ATOM_UDEF_STEREO_COUNT>  (153) 
1

>  <PUBCHEM_BONDANNOTATIONS>  (153) 
10  13  8
10  16  8
13  17  8
15  20  8
15  21  8
16  18  8
17  19  8
18  19  8
20  22  8
21  23  8
22  24  8
23  24  8
5  13  8
5  14  8
6  7  3
8  10  8
8  14  8

>  <PUBCHEM_BOND_DEF_STEREO_COUNT>  (153) 
0

>  <PUBCHEM_BOND_UDEF_STEREO_COUNT>  (153) 
0

>  <PUBCHEM_CACTVS_COMPLEXITY>  (153) 
491

>  <PUBCHEM_CACTVS_HBOND_ACCEPTOR>  (153) 
2

>  <PUBCHEM_CACTVS_HBOND_DONOR>  (153) 
2

>  <PUBCHEM_CACTVS_ROTATABLE_BOND>  (153) 
4

>  <PUBCHEM_CACTVS_SUBSKEYS>  (153) 
AAADceB7IABAAAAAAAAAAAAAAAAAAWLAAAAwYAAAAAAAAFgB9AAAHgQQAAAADCjBngQ9wPPJkACsAzV3VACCgCAxAikI2aG4ZJiIYPLAkbGUIAholwLIyAcYicCOgAAAAAACAAAAAAAAAAQAAAAAAAAAAA==

>  <PUBCHEM_CACTVS_TAUTO_COUNT>  (153) 
4

>  <PUBCHEM_CACTVS_TPSA>  (153) 
80.2

>  <PUBCHEM_COMPONENT_COUNT>  (153) 
1

>  <PUBCHEM_COMPOUND_CANONICALIZED>  (153) 
1

>  <PUBCHEM_COMPOUND_CID>  (153) 
3144932

>  <PUBCHEM_COORDINATE_TYPE>  (153) 
1
5
255

>  <PUBCHEM_EXACT_MASS>  (153) 
335.109233

>  <PUBCHEM_HEAVY_ATOM_COUNT>  (153) 
24

>  <PUBCHEM_ISOTOPIC_ATOM_COUNT>  (153) 
0

>  <PUBCHEM_IUPAC_CAS_NAME>  (153) 
5-(1H-indol-3-ylmethyl)-3-(phenylmethyl)-2-sulfanylidene-4-imidazolidinone

>  <PUBCHEM_IUPAC_INCHI>  (153) 
InChI=1S/C19H17N3OS/c23-18-17(10-14-11-20-16-9-5-4-8-15(14)16)21-19(24)22(18)12-13-6-2-1-3-7-13/h1-9,11,17,20H,10,12H2,(H,21,24)

>  <PUBCHEM_IUPAC_INCHIKEY>  (153) 
DWYPPIGSSKJBOL-UHFFFAOYSA-N

>  <PUBCHEM_IUPAC_NAME>  (153) 
3-benzyl-5-(1H-indol-3-ylmethyl)-2-sulfanylideneimidazolidin-4-one

>  <PUBCHEM_IUPAC_OPENEYE_NAME>  (153) 
3-benzyl-5-(1H-indol-3-ylmethyl)-2-thioxo-imidazolidin-4-one

>  <PUBCHEM_IUPAC_SYSTEMATIC_NAME>  (153) 
5-(1H-indol-3-ylmethyl)-3-(phenylmethyl)-2-sulfanylidene-imidazolidin-4-one

>  <PUBCHEM_IUPAC_TRADITIONAL_NAME>  (153) 
3-benzyl-5-(1H-indol-3-ylmethyl)-2-thioxo-4-imidazolidinone

>  <PUBCHEM_MOLECULAR_FORMULA>  (153) 
C19H17N3OS

>  <PUBCHEM_MOLECULAR_WEIGHT>  (153) 
335.42278

>  <PUBCHEM_MONOISOTOPIC_WEIGHT>  (153) 
335.109233

>  <PUBCHEM_OPENEYE_CAN_SMILES>  (153) 
C1=CC=C(C=C1)CN2C(=O)C(NC2=S)CC3=CNC4=CC=CC=C43

>  <PUBCHEM_OPENEYE_ISO_SMILES>  (153) 
C1=CC=C(C=C1)CN2C(=O)C(NC2=S)CC3=CNC4=CC=CC=C43

>  <PUBCHEM_TOTAL_CHARGE>  (153) 
0

>  <PUBCHEM_XLOGP3_AA>  (153) 
3.3

$$$$
Largest isolated from Written by BCL::WriteToMDL,767981
     RDKit          2D

 34 36  0 34  0  0  0  0  0  0999 V2000
   -0.9472   -0.4003    0.0000 S   0  0  0  0  0  0  0  0  0  0  0  0
   -6.8470    0.6916    0.0000 F   0  0  0  0  0  0  0  0  0  0  0  0
   -0.6742    1.0746    0.0000 O   0  0  0  0  0  0  0  0  0  0  0  0
   -1.3979   -1.8310    0.0000 O   0  0  0  0  0  0  0  0  0  0  0  0
    0.5278   -0.6733    0.0000 N   0  0  0  0  0  0  0  0  0  0  0  0
    1.0288   -2.0872    0.0000 C   0  0  0  0  0  0  0  0  0  0  0  0
    2.5038   -2.3602    0.0000 C   0  0  0  0  0  0  0  0  0  0  0  0
    3.4777   -1.2193    0.0000 C   0  0  0  0  0  0  0  0  0  0  0  0
    1.5017    0.4675    0.0000 C   0  0  0  0  0  0  0  0  0  0  0  0
    2.9766    0.1945    0.0000 C   0  0  0  0  0  0  0  0  0  0  0  0
    1.0006    1.8813    0.0000 C   0  0  0  0  0  0  0  0  0  0  0  0
    3.9505    1.3354    0.0000 C   0  0  0  0  0  0  0  0  0  0  0  0
   -2.4221   -0.1274    0.0000 C   0  0  0  0  0  0  0  0  0  0  0  0
    1.9745    3.0222    0.0000 C   0  0  0  0  0  0  0  0  0  0  0  0
    3.4495    2.7492    0.0000 C   0  0  0  0  0  0  0  0  0  0  0  0
   -2.9232    1.2865    0.0000 C   0  0  0  0  0  0  0  0  0  0  0  0
   -3.3960   -1.2682    0.0000 C   0  0  0  0  0  0  0  0  0  0  0  0
   -4.3981    1.5595    0.0000 C   0  0  0  0  0  0  0  0  0  0  0  0
   -4.8710   -0.9952    0.0000 C   0  0  0  0  0  0  0  0  0  0  0  0
   -5.3720    0.4186    0.0000 C   0  0  0  0  0  0  0  0  0  0  0  0
    1.0161   -3.5871    0.0000 H   0  0  0  0  0  0  0  0  0  0  0  0
   -0.4093   -2.5136    0.0000 H   0  0  0  0  0  0  0  0  0  0  0  0
    3.7964   -3.1212    0.0000 H   0  0  0  0  0  0  0  0  0  0  0  0
    1.9788   -3.7653    0.0000 H   0  0  0  0  0  0  0  0  0  0  0  0
    4.7830   -0.4804    0.0000 H   0  0  0  0  0  0  0  0  0  0  0  0
    4.4321   -2.3765    0.0000 H   0  0  0  0  0  0  0  0  0  0  0  0
   -0.4743    2.1543    0.0000 H   0  0  0  0  0  0  0  0  0  0  0  0
    5.4255    1.0624    0.0000 H   0  0  0  0  0  0  0  0  0  0  0  0
    1.4735    4.4360    0.0000 H   0  0  0  0  0  0  0  0  0  0  0  0
    4.4234    3.8900    0.0000 H   0  0  0  0  0  0  0  0  0  0  0  0
   -1.9493    2.4273    0.0000 H   0  0  0  0  0  0  0  0  0  0  0  0
   -2.8949   -2.6820    0.0000 H   0  0  0  0  0  0  0  0  0  0  0  0
   -4.8992    2.9733    0.0000 H   0  0  0  0  0  0  0  0  0  0  0  0
   -5.8448   -2.1361    0.0000 H   0  0  0  0  0  0  0  0  0  0  0  0
  1  3  2  0
  1  4  2  0
  1  5  1  0
  1 13  1  0
  2 20  1  0
  5  6  1  0
  5  9  1  0
  6  7  1  0
  6 21  1  0
  6 22  1  0
  7  8  1  0
  7 23  1  0
  7 24  1  0
  8 10  1  0
  8 25  1  0
  8 26  1  0
  9 10  2  0
  9 11  1  0
 10 12  1  0
 11 14  2  0
 11 27  1  0
 12 15  2  0
 12 28  1  0
 13 16  2  0
 13 17  1  0
 14 15  1  0
 14 29  1  0
 15 30  1  0
 16 18  1  0
 16 31  1  0
 17 19  2  0
 17 32  1  0
 18 20  2  0
 18 33  1  0
 19 20  1  0
 19 34  1  0
M  STY  8   1 DAT   2 DAT   3 DAT   4 DAT   5 DAT   6 DAT   7 DAT   8 DAT
M  STY  8   9 DAT  10 DAT  11 DAT  12 DAT  13 DAT  14 DAT  15 DAT  16 DAT
M  STY  8  17 DAT  18 DAT  19 DAT  20 DAT  21 DAT  22 DAT  23 DAT  24 DAT
M  STY  8  25 DAT  26 DAT  27 DAT  28 DAT  29 DAT  30 DAT  31 DAT  32 DAT
M  STY  2  33 DAT  34 DAT
M  SAL   1  1   1
M  SED   1 [#16&h0]
M  SAL   2  1   2
M  SED   2 [#9&h0]
M  SAL   3  1   3
M  SED   3 [#8&h0]
M  SAL   4  1   4
M  SED   4 [#8&h0]
M  SAL   5  1   5
M  SED   5 [#7&h0]
M  SAL   6  1   6
M  SED   6 [#6&h0]
M  SAL   7  1   7
M  SED   7 [#6&h0]
M  SAL   8  1   8
M  SED   8 [#6&h0]
M  SAL   9  1   9
M  SED   9 [#6&h0]
M  SAL  10  1  10
M  SED  10 [#6&h0]
M  SAL  11  1  11
M  SED  11 [#6&h0]
M  SAL  12  1  12
M  SED  12 [#6&h0]
M  SAL  13  1  13
M  SED  13 [#6&h0]
M  SAL  14  1  14
M  SED  14 [#6&h0]
M  SAL  15  1  15
M  SED  15 [#6&h0]
M  SAL  16  1  16
M  SED  16 [#6&h0]
M  SAL  17  1  17
M  SED  17 [#6&h0]
M  SAL  18  1  18
M  SED  18 [#6&h0]
M  SAL  19  1  19
M  SED  19 [#6&h0]
M  SAL  20  1  20
M  SED  20 [#6&h0]
M  SAL  21  1  21
M  SED  21 [#1&h0]
M  SAL  22  1  22
M  SED  22 [#1&h0]
M  SAL  23  1  23
M  SED  23 [#1&h0]
M  SAL  24  1  24
M  SED  24 [#1&h0]
M  SAL  25  1  25
M  SED  25 [#1&h0]
M  SAL  26  1  26
M  SED  26 [#1&h0]
M  SAL  27  1  27
M  SED  27 [#1&h0]
M  SAL  28  1  28
M  SED  28 [#1&h0]
M  SAL  29  1  29
M  SED  29 [#1&h0]
M  SAL  30  1  30
M  SED  30 [#1&h0]
M  SAL  31  1  31
M  SED  31 [#1&h0]
M  SAL  32  1  32
M  SED  32 [#1&h0]
M  SAL  33  1  33
M  SED  33 [#1&h0]
M  SAL  34  1  34
M  SED  34 [#1&h0]
M  END
>  <Activity>  (154) 
0.01

>  <Mapped(file=2032.csv.activities,property=Cached(PUBCHEM_COMPOUND_CID))>  (154) 
100

>  <MatchIndices>  (154) 
157 

>  <PUBCHEM_ATOM_DEF_STEREO_COUNT>  (154) 
0

>  <PUBCHEM_ATOM_UDEF_STEREO_COUNT>  (154) 
0

>  <PUBCHEM_BONDANNOTATIONS>  (154) 
10  12  8
11  14  8
12  15  8
13  16  8
13  17  8
14  15  8
16  18  8
17  19  8
18  20  8
19  20  8
9  10  8
9  11  8

>  <PUBCHEM_BOND_DEF_STEREO_COUNT>  (154) 
0

>  <PUBCHEM_BOND_UDEF_STEREO_COUNT>  (154) 
0

>  <PUBCHEM_CACTVS_COMPLEXITY>  (154) 
426

>  <PUBCHEM_CACTVS_HBOND_ACCEPTOR>  (154) 
4

>  <PUBCHEM_CACTVS_HBOND_DONOR>  (154) 
0

>  <PUBCHEM_CACTVS_ROTATABLE_BOND>  (154) 
2

>  <PUBCHEM_CACTVS_SUBSKEYS>  (154) 
AAADccByMQBAAAAAAAAAAAAAAAAAAAAAAAA8YIAAAAAAAACxQAAAHQQAQAAADAjBWAwwwYIAAAKAAiRCQHDCABAhAgAIiBgIZIgIICLAkZGEIAhggADIyAcQgIAOAAAAAAACAAAAAAAAAAQAAAAAAAAAAA==

>  <PUBCHEM_CACTVS_TAUTO_COUNT>  (154) 
1

>  <PUBCHEM_CACTVS_TPSA>  (154) 
45.8

>  <PUBCHEM_COMPONENT_COUNT>  (154) 
1

>  <PUBCHEM_COMPOUND_CANONICALIZED>  (154) 
1

>  <PUBCHEM_COMPOUND_CID>  (154) 
767981

>  <PUBCHEM_COORDINATE_TYPE>  (154) 
1
5
255

>  <PUBCHEM_EXACT_MASS>  (154) 
291.072928

>  <PUBCHEM_HEAVY_ATOM_COUNT>  (154) 
20

>  <PUBCHEM_ISOTOPIC_ATOM_COUNT>  (154) 
0

>  <PUBCHEM_IUPAC_CAS_NAME>  (154) 
1-(4-fluorophenyl)sulfonyl-3,4-dihydro-2H-quinoline

>  <PUBCHEM_IUPAC_INCHI>  (154) 
InChI=1S/C15H14FNO2S/c16-13-7-9-14(10-8-13)20(18,19)17-11-3-5-12-4-1-2-6-15(12)17/h1-2,4,6-10H,3,5,11H2

>  <PUBCHEM_IUPAC_INCHIKEY>  (154) 
UXEDWAWAWJTDCB-UHFFFAOYSA-N

>  <PUBCHEM_IUPAC_NAME>  (154) 
1-(4-fluorophenyl)sulfonyl-3,4-dihydro-2H-quinoline

>  <PUBCHEM_IUPAC_OPENEYE_NAME>  (154) 
1-(4-fluorophenyl)sulfonyl-3,4-dihydro-2H-quinoline

>  <PUBCHEM_IUPAC_SYSTEMATIC_NAME>  (154) 
1-(4-fluorophenyl)sulfonyl-3,4-dihydro-2H-quinoline

>  <PUBCHEM_IUPAC_TRADITIONAL_NAME>  (154) 
1-(4-fluorophenyl)sulfonyl-3,4-dihydro-2H-quinoline

>  <PUBCHEM_MOLECULAR_FORMULA>  (154) 
C15H14FNO2S

>  <PUBCHEM_MOLECULAR_WEIGHT>  (154) 
291.340563

>  <PUBCHEM_MONOISOTOPIC_WEIGHT>  (154) 
291.072928

>  <PUBCHEM_OPENEYE_CAN_SMILES>  (154) 
C1CC2=CC=CC=C2N(C1)S(=O)(=O)C3=CC=C(C=C3)F

>  <PUBCHEM_OPENEYE_ISO_SMILES>  (154) 
C1CC2=CC=CC=C2N(C1)S(=O)(=O)C3=CC=C(C=C3)F

>  <PUBCHEM_TOTAL_CHARGE>  (154) 
0

>  <PUBCHEM_XLOGP3_AA>  (154) 
3.1

$$$$
Largest isolated from Written by BCL::WriteToMDL,2846583
     RDKit          2D

 52 55  0 52  0  0  0  0  0  0999 V2000
    1.1499    1.3307    0.0000 N   0  0  0  0  0  0  0  0  0  0  0  0
   -2.9329    0.1162    0.0000 N   0  0  0  0  0  0  0  0  0  0  0  0
    2.5880    0.9042    0.0000 C   0  0  0  0  0  0  0  0  0  0  0  0
    1.8494   -1.5867    0.0000 C   0  0  0  0  0  0  0  0  0  0  0  0
    5.1145    1.5100    0.0000 C   0  0  0  0  0  0  0  0  0  0  0  0
    4.3758   -0.9809    0.0000 C   0  0  0  0  0  0  0  0  0  0  0  0
    2.9377   -0.5544    0.0000 C   0  0  0  0  0  0  0  0  0  0  0  0
    3.6763    1.9364    0.0000 C   0  0  0  0  0  0  0  0  0  0  0  0
    1.4996   -0.1280    0.0000 C   0  0  0  0  0  0  0  0  0  0  0  0
    5.4642    0.0513    0.0000 C   0  0  0  0  0  0  0  0  0  0  0  0
    3.2875   -2.0131    0.0000 C   0  0  0  0  0  0  0  0  0  0  0  0
    2.2758   -0.1485    0.0000 C   0  0  0  0  0  0  0  0  0  0  0  0
    0.0615    0.2984    0.0000 C   0  0  0  0  0  0  0  0  0  0  0  0
   -0.6082   -1.0438    0.0000 C   0  0  0  0  0  0  0  0  0  0  0  0
   -0.7660    1.5495    0.0000 C   0  0  0  0  0  0  0  0  0  0  0  0
   -2.2633    1.4584    0.0000 C   0  0  0  0  0  0  0  0  0  0  0  0
   -2.1054   -1.1349    0.0000 C   0  0  0  0  0  0  0  0  0  0  0  0
   -4.4302    0.0250    0.0000 C   0  0  0  0  0  0  0  0  0  0  0  0
   -5.9274   -0.0661    0.0000 C   0  0  0  0  0  0  0  0  0  0  0  0
   -7.4246   -0.1573    0.0000 C   0  0  0  0  0  0  0  0  0  0  0  0
    0.7610   -2.6189    0.0000 H   0  0  0  0  0  0  0  0  0  0  0  0
    6.2028    2.5422    0.0000 H   0  0  0  0  0  0  0  0  0  0  0  0
    4.9008   -2.3860    0.0000 H   0  0  0  0  0  0  0  0  0  0  0  0
    2.6273   -1.3840    0.0000 H   0  0  0  0  0  0  0  0  0  0  0  0
    2.2123   -0.8849    0.0000 H   0  0  0  0  0  0  0  0  0  0  0  0
    2.4708    2.8290    0.0000 H   0  0  0  0  0  0  0  0  0  0  0  0
    4.3460    3.2786    0.0000 H   0  0  0  0  0  0  0  0  0  0  0  0
    0.3940    0.8856    0.0000 H   0  0  0  0  0  0  0  0  0  0  0  0
    0.1239   -0.7257    0.0000 H   0  0  0  0  0  0  0  0  0  0  0  0
    0.7759   -0.1612    0.0000 H   0  0  0  0  0  0  0  0  0  0  0  0
    1.8251    1.2821    0.0000 H   0  0  0  0  0  0  0  0  0  0  0  0
    2.6178   -3.3553    0.0000 H   0  0  0  0  0  0  0  0  0  0  0  0
    4.3752   -3.0460    0.0000 H   0  0  0  0  0  0  0  0  0  0  0  0
    6.8400    0.6491    0.0000 H   0  0  0  0  0  0  0  0  0  0  0  0
    6.2917   -1.1997    0.0000 H   0  0  0  0  0  0  0  0  0  0  0  0
    0.9805    2.8211    0.0000 H   0  0  0  0  0  0  0  0  0  0  0  0
    0.7068   -1.0557    0.0000 H   0  0  0  0  0  0  0  0  0  0  0  0
    0.8299   -1.4702    0.0000 H   0  0  0  0  0  0  0  0  0  0  0  0
   -0.7784   -2.5341    0.0000 H   0  0  0  0  0  0  0  0  0  0  0  0
   -1.1158    3.0082    0.0000 H   0  0  0  0  0  0  0  0  0  0  0  0
    0.5266    2.3105    0.0000 H   0  0  0  0  0  0  0  0  0  0  0  0
   -1.7556   -2.5936    0.0000 H   0  0  0  0  0  0  0  0  0  0  0  0
   -3.3980   -1.8959    0.0000 H   0  0  0  0  0  0  0  0  0  0  0  0
   -3.6387    2.0569    0.0000 H   0  0  0  0  0  0  0  0  0  0  0  0
   -2.0930    2.9487    0.0000 H   0  0  0  0  0  0  0  0  0  0  0  0
   -4.7031    1.5000    0.0000 H   0  0  0  0  0  0  0  0  0  0  0  0
   -4.5222   -1.4722    0.0000 H   0  0  0  0  0  0  0  0  0  0  0  0
   -5.8363   -1.5634    0.0000 H   0  0  0  0  0  0  0  0  0  0  0  0
   -6.0185    1.4311    0.0000 H   0  0  0  0  0  0  0  0  0  0  0  0
   -7.5158    1.3400    0.0000 H   0  0  0  0  0  0  0  0  0  0  0  0
   -7.3335   -1.6545    0.0000 H   0  0  0  0  0  0  0  0  0  0  0  0
   -8.9218   -0.2484    0.0000 H   0  0  0  0  0  0  0  0  0  0  0  0
  3  1  1  6
  1 13  1  0
  1 36  1  0
  2 16  1  0
  2 17  1  0
  2 18  1  0
  3  7  1  0
  3  8  1  0
  3  9  1  0
  4  9  1  0
  4 11  1  0
  4 12  1  0
  4 21  1  1
  5  8  1  0
  5 10  1  0
  5 12  1  0
  5 22  1  1
  6  7  1  0
  6 10  1  0
  6 11  1  0
  6 23  1  6
  7 24  1  0
  7 25  1  0
  8 26  1  0
  8 27  1  0
  9 28  1  0
  9 29  1  0
 10 34  1  0
 10 35  1  0
 11 32  1  0
 11 33  1  0
 12 30  1  0
 12 31  1  0
 13 14  1  0
 13 15  1  0
 13 37  1  0
 14 17  1  0
 14 38  1  0
 14 39  1  0
 15 16  1  0
 15 40  1  0
 15 41  1  0
 16 44  1  0
 16 45  1  0
 17 42  1  0
 17 43  1  0
 18 19  1  0
 18 46  1  0
 18 47  1  0
 19 20  1  0
 19 48  1  0
 19 49  1  0
 20 50  1  0
 20 51  1  0
 20 52  1  0
M  STY  8   1 DAT   2 DAT   3 DAT   4 DAT   5 DAT   6 DAT   7 DAT   8 DAT
M  STY  8   9 DAT  10 DAT  11 DAT  12 DAT  13 DAT  14 DAT  15 DAT  16 DAT
M  STY  8  17 DAT  18 DAT  19 DAT  20 DAT  21 DAT  22 DAT  23 DAT  24 DAT
M  STY  8  25 DAT  26 DAT  27 DAT  28 DAT  29 DAT  30 DAT  31 DAT  32 DAT
M  STY  8  33 DAT  34 DAT  35 DAT  36 DAT  37 DAT  38 DAT  39 DAT  40 DAT
M  STY  8  41 DAT  42 DAT  43 DAT  44 DAT  45 DAT  46 DAT  47 DAT  48 DAT
M  STY  4  49 DAT  50 DAT  51 DAT  52 DAT
M  SAL   1  1   1
M  SED   1 [#7&h0]
M  SAL   2  1   2
M  SED   2 [#7&h0]
M  SAL   3  1   3
M  SED   3 [#6&h0]
M  SAL   4  1   4
M  SED   4 [#6&h0]
M  SAL   5  1   5
M  SED   5 [#6&h0]
M  SAL   6  1   6
M  SED   6 [#6&h0]
M  SAL   7  1   7
M  SED   7 [#6&h0]
M  SAL   8  1   8
M  SED   8 [#6&h0]
M  SAL   9  1   9
M  SED   9 [#6&h0]
M  SAL  10  1  10
M  SED  10 [#6&h0]
M  SAL  11  1  11
M  SED  11 [#6&h0]
M  SAL  12  1  12
M  SED  12 [#6&h0]
M  SAL  13  1  13
M  SED  13 [#6&h0]
M  SAL  14  1  14
M  SED  14 [#6&h0]
M  SAL  15  1  15
M  SED  15 [#6&h0]
M  SAL  16  1  16
M  SED  16 [#6&h0]
M  SAL  17  1  17
M  SED  17 [#6&h0]
M  SAL  18  1  18
M  SED  18 [#6&h0]
M  SAL  19  1  19
M  SED  19 [#6&h0]
M  SAL  20  1  20
M  SED  20 [#6&h0]
M  SAL  21  1  21
M  SED  21 [#1&h0]
M  SAL  22  1  22
M  SED  22 [#1&h0]
M  SAL  23  1  23
M  SED  23 [#1&h0]
M  SAL  24  1  24
M  SED  24 [#1&h0]
M  SAL  25  1  25
M  SED  25 [#1&h0]
M  SAL  26  1  26
M  SED  26 [#1&h0]
M  SAL  27  1  27
M  SED  27 [#1&h0]
M  SAL  28  1  28
M  SED  28 [#1&h0]
M  SAL  29  1  29
M  SED  29 [#1&h0]
M  SAL  30  1  30
M  SED  30 [#1&h0]
M  SAL  31  1  31
M  SED  31 [#1&h0]
M  SAL  32  1  32
M  SED  32 [#1&h0]
M  SAL  33  1  33
M  SED  33 [#1&h0]
M  SAL  34  1  34
M  SED  34 [#1&h0]
M  SAL  35  1  35
M  SED  35 [#1&h0]
M  SAL  36  1  36
M  SED  36 [#1&h0]
M  SAL  37  1  37
M  SED  37 [#1&h0]
M  SAL  38  1  38
M  SED  38 [#1&h0]
M  SAL  39  1  39
M  SED  39 [#1&h0]
M  SAL  40  1  40
M  SED  40 [#1&h0]
M  SAL  41  1  41
M  SED  41 [#1&h0]
M  SAL  42  1  42
M  SED  42 [#1&h0]
M  SAL  43  1  43
M  SED  43 [#1&h0]
M  SAL  44  1  44
M  SED  44 [#1&h0]
M  SAL  45  1  45
M  SED  45 [#1&h0]
M  SAL  46  1  46
M  SED  46 [#1&h0]
M  SAL  47  1  47
M  SED  47 [#1&h0]
M  SAL  48  1  48
M  SED  48 [#1&h0]
M  SAL  49  1  49
M  SED  49 [#1&h0]
M  SAL  50  1  50
M  SED  50 [#1&h0]
M  SAL  51  1  51
M  SED  51 [#1&h0]
M  SAL  52  1  52
M  SED  52 [#1&h0]
M  END
>  <Activity>  (155) 
0.01

>  <Mapped(file=2032.csv.activities,property=Cached(PUBCHEM_COMPOUND_CID))>  (155) 
100

>  <MatchIndices>  (155) 
81 

>  <PUBCHEM_ATOM_DEF_STEREO_COUNT>  (155) 
0

>  <PUBCHEM_ATOM_UDEF_STEREO_COUNT>  (155) 
0

>  <PUBCHEM_BOND_DEF_STEREO_COUNT>  (155) 
0

>  <PUBCHEM_BOND_UDEF_STEREO_COUNT>  (155) 
0

>  <PUBCHEM_CACTVS_COMPLEXITY>  (155) 
302

>  <PUBCHEM_CACTVS_HBOND_ACCEPTOR>  (155) 
2

>  <PUBCHEM_CACTVS_HBOND_DONOR>  (155) 
1

>  <PUBCHEM_CACTVS_ROTATABLE_BOND>  (155) 
4

>  <PUBCHEM_CACTVS_SUBSKEYS>  (155) 
AAADcfB7AAAAAAAAAAAAAAAAAAAAAAAAAAA8YMGCAAAAAAAAAAAAHAAQAAAADajBAAQCAAPAAAAAAAAAAAAAAAAAAAAAAIAIAAAAAAIAwAAEAAAAEACAAAEQgMAOAAAAAAAAAAAAAASAAAAAAAAAAAAAAA==

>  <PUBCHEM_CACTVS_TAUTO_COUNT>  (155) 
1

>  <PUBCHEM_CACTVS_TPSA>  (155) 
15.3

>  <PUBCHEM_COMPONENT_COUNT>  (155) 
1

>  <PUBCHEM_COMPOUND_CANONICALIZED>  (155) 
1

>  <PUBCHEM_COMPOUND_CID>  (155) 
2846583

>  <PUBCHEM_COORDINATE_TYPE>  (155) 
1
5
255

>  <PUBCHEM_EXACT_MASS>  (155) 
276.256549

>  <PUBCHEM_HEAVY_ATOM_COUNT>  (155) 
20

>  <PUBCHEM_ISOTOPIC_ATOM_COUNT>  (155) 
0

>  <PUBCHEM_IUPAC_CAS_NAME>  (155) 
N-(1-adamantyl)-1-propyl-4-piperidinamine

>  <PUBCHEM_IUPAC_INCHI>  (155) 
InChI=1S/C18H32N2/c1-2-5-20-6-3-17(4-7-20)19-18-11-14-8-15(12-18)10-16(9-14)13-18/h14-17,19H,2-13H2,1H3

>  <PUBCHEM_IUPAC_INCHIKEY>  (155) 
QXZQINDZMQDFRZ-UHFFFAOYSA-N

>  <PUBCHEM_IUPAC_NAME>  (155) 
N-(1-adamantyl)-1-propylpiperidin-4-amine

>  <PUBCHEM_IUPAC_OPENEYE_NAME>  (155) 
N-(1-adamantyl)-1-propyl-piperidin-4-amine

>  <PUBCHEM_IUPAC_SYSTEMATIC_NAME>  (155) 
N-(1-adamantyl)-1-propyl-piperidin-4-amine

>  <PUBCHEM_IUPAC_TRADITIONAL_NAME>  (155) 
1-adamantyl-(1-propyl-4-piperidyl)amine

>  <PUBCHEM_MOLECULAR_FORMULA>  (155) 
C18H32N2

>  <PUBCHEM_MOLECULAR_WEIGHT>  (155) 
276.46008

>  <PUBCHEM_MONOISOTOPIC_WEIGHT>  (155) 
276.256549

>  <PUBCHEM_OPENEYE_CAN_SMILES>  (155) 
CCCN1CCC(CC1)NC23CC4CC(C2)CC(C4)C3

>  <PUBCHEM_OPENEYE_ISO_SMILES>  (155) 
CCCN1CCC(CC1)NC23CC4CC(C2)CC(C4)C3

>  <PUBCHEM_TOTAL_CHARGE>  (155) 
0

>  <PUBCHEM_XLOGP3_AA>  (155) 
4

$$$$
Largest isolated from Written by BCL::WriteToMDL,9104271
     RDKit          2D

 50 53  0 50  0  0  0  0  0  0999 V2000
   10.2181   -0.9441    0.0000 Cl  0  0  0  0  0  0  0  0  0  0  0  0
   -3.6074    2.7446    0.0000 O   0  0  0  0  0  0  0  0  0  0  0  0
   -0.1308    0.8305    0.0000 N   0  0  0  0  0  0  0  0  0  0  0  0
    2.8260    0.3235    0.0000 N   0  0  0  0  0  0  0  0  0  0  0  0
   -4.0464    0.1839    0.0000 N   0  0  0  0  0  0  0  0  0  0  0  0
    0.3888   -0.5766    0.0000 C   0  0  0  0  0  0  0  0  0  0  0  0
    0.8279    1.9841    0.0000 C   0  0  0  0  0  0  0  0  0  0  0  0
    2.3063    1.7306    0.0000 C   0  0  0  0  0  0  0  0  0  0  0  0
    1.8672   -0.8301    0.0000 C   0  0  0  0  0  0  0  0  0  0  0  0
   -1.6093    1.0840    0.0000 C   0  0  0  0  0  0  0  0  0  0  0  0
    4.3044    0.0700    0.0000 C   0  0  0  0  0  0  0  0  0  0  0  0
   -3.6767   -1.2698    0.0000 C   0  0  0  0  0  0  0  0  0  0  0  0
   -3.0877    1.3375    0.0000 C   0  0  0  0  0  0  0  0  0  0  0  0
   -4.9450   -2.0706    0.0000 C   0  0  0  0  0  0  0  0  0  0  0  0
   -5.5433    0.2815    0.0000 C   0  0  0  0  0  0  0  0  0  0  0  0
   -6.0986   -1.1119    0.0000 C   0  0  0  0  0  0  0  0  0  0  0  0
    5.7828   -0.1835    0.0000 C   0  0  0  0  0  0  0  0  0  0  0  0
   -6.4723    1.4592    0.0000 C   0  0  0  0  0  0  0  0  0  0  0  0
   -7.5830   -1.3276    0.0000 C   0  0  0  0  0  0  0  0  0  0  0  0
   -7.9567    1.2434    0.0000 C   0  0  0  0  0  0  0  0  0  0  0  0
   -8.5121   -0.1500    0.0000 C   0  0  0  0  0  0  0  0  0  0  0  0
    6.3025   -1.5906    0.0000 C   0  0  0  0  0  0  0  0  0  0  0  0
    6.7416    0.9701    0.0000 C   0  0  0  0  0  0  0  0  0  0  0  0
    7.7809   -1.8441    0.0000 C   0  0  0  0  0  0  0  0  0  0  0  0
    8.2200    0.7166    0.0000 C   0  0  0  0  0  0  0  0  0  0  0  0
    8.7397   -0.6906    0.0000 C   0  0  0  0  0  0  0  0  0  0  0  0
    0.3959   -2.0766    0.0000 H   0  0  0  0  0  0  0  0  0  0  0  0
   -1.0435   -1.0219    0.0000 H   0  0  0  0  0  0  0  0  0  0  0  0
   -0.3743    2.8812    0.0000 H   0  0  0  0  0  0  0  0  0  0  0  0
    1.3343    3.3960    0.0000 H   0  0  0  0  0  0  0  0  0  0  0  0
    3.0694   -1.7272    0.0000 H   0  0  0  0  0  0  0  0  0  0  0  0
    1.3609   -2.2420    0.0000 H   0  0  0  0  0  0  0  0  0  0  0  0
    2.2993    3.2306    0.0000 H   0  0  0  0  0  0  0  0  0  0  0  0
    3.7387    2.1759    0.0000 H   0  0  0  0  0  0  0  0  0  0  0  0
   -1.8146   -0.1135    0.0000 H   0  0  0  0  0  0  0  0  0  0  0  0
   -1.5379    2.5823    0.0000 H   0  0  0  0  0  0  0  0  0  0  0  0
    4.2330   -1.4283    0.0000 H   0  0  0  0  0  0  0  0  0  0  0  0
    4.7363    1.5065    0.0000 H   0  0  0  0  0  0  0  0  0  0  0  0
   -2.4941   -0.9909    0.0000 H   0  0  0  0  0  0  0  0  0  0  0  0
   -3.0128   -2.6149    0.0000 H   0  0  0  0  0  0  0  0  0  0  0  0
   -4.0160   -3.2483    0.0000 H   0  0  0  0  0  0  0  0  0  0  0  0
   -6.0191   -3.1177    0.0000 H   0  0  0  0  0  0  0  0  0  0  0  0
   -5.9170    2.8526    0.0000 H   0  0  0  0  0  0  0  0  0  0  0  0
   -8.1384   -2.7210    0.0000 H   0  0  0  0  0  0  0  0  0  0  0  0
   -8.8858    2.4211    0.0000 H   0  0  0  0  0  0  0  0  0  0  0  0
   -9.9965   -0.3657    0.0000 H   0  0  0  0  0  0  0  0  0  0  0  0
    5.3438   -2.7442    0.0000 H   0  0  0  0  0  0  0  0  0  0  0  0
    6.2219    2.3772    0.0000 H   0  0  0  0  0  0  0  0  0  0  0  0
    8.3006   -3.2513    0.0000 H   0  0  0  0  0  0  0  0  0  0  0  0
    9.1788    1.8702    0.0000 H   0  0  0  0  0  0  0  0  0  0  0  0
  1 26  1  0
  2 13  2  0
  3  6  1  0
  3  7  1  0
  3 10  1  0
  4  8  1  0
  4  9  1  0
  4 11  1  0
  5 12  1  0
  5 13  1  0
  5 15  1  0
  6  9  1  0
  6 27  1  0
  6 28  1  0
  7  8  1  0
  7 29  1  0
  7 30  1  0
  8 33  1  0
  8 34  1  0
  9 31  1  0
  9 32  1  0
 10 13  1  0
 10 35  1  0
 10 36  1  0
 11 17  1  0
 11 37  1  0
 11 38  1  0
 12 14  1  0
 12 39  1  0
 12 40  1  0
 14 16  1  0
 14 41  1  0
 14 42  1  0
 15 16  2  0
 15 18  1  0
 16 19  1  0
 17 22  2  0
 17 23  1  0
 18 20  2  0
 18 43  1  0
 19 21  2  0
 19 44  1  0
 20 21  1  0
 20 45  1  0
 21 46  1  0
 22 24  1  0
 22 47  1  0
 23 25  2  0
 23 48  1  0
 24 26  2  0
 24 49  1  0
 25 26  1  0
 25 50  1  0
M  STY  8   1 DAT   2 DAT   3 DAT   4 DAT   5 DAT   6 DAT   7 DAT   8 DAT
M  STY  8   9 DAT  10 DAT  11 DAT  12 DAT  13 DAT  14 DAT  15 DAT  16 DAT
M  STY  8  17 DAT  18 DAT  19 DAT  20 DAT  21 DAT  22 DAT  23 DAT  24 DAT
M  STY  8  25 DAT  26 DAT  27 DAT  28 DAT  29 DAT  30 DAT  31 DAT  32 DAT
M  STY  8  33 DAT  34 DAT  35 DAT  36 DAT  37 DAT  38 DAT  39 DAT  40 DAT
M  STY  8  41 DAT  42 DAT  43 DAT  44 DAT  45 DAT  46 DAT  47 DAT  48 DAT
M  STY  2  49 DAT  50 DAT
M  SAL   1  1   1
M  SED   1 [#17&h0]
M  SAL   2  1   2
M  SED   2 [#8&h0]
M  SAL   3  1   3
M  SED   3 [#7&h0]
M  SAL   4  1   4
M  SED   4 [#7&h0]
M  SAL   5  1   5
M  SED   5 [#7&h0]
M  SAL   6  1   6
M  SED   6 [#6&h0]
M  SAL   7  1   7
M  SED   7 [#6&h0]
M  SAL   8  1   8
M  SED   8 [#6&h0]
M  SAL   9  1   9
M  SED   9 [#6&h0]
M  SAL  10  1  10
M  SED  10 [#6&h0]
M  SAL  11  1  11
M  SED  11 [#6&h0]
M  SAL  12  1  12
M  SED  12 [#6&h0]
M  SAL  13  1  13
M  SED  13 [#6&h0]
M  SAL  14  1  14
M  SED  14 [#6&h0]
M  SAL  15  1  15
M  SED  15 [#6&h0]
M  SAL  16  1  16
M  SED  16 [#6&h0]
M  SAL  17  1  17
M  SED  17 [#6&h0]
M  SAL  18  1  18
M  SED  18 [#6&h0]
M  SAL  19  1  19
M  SED  19 [#6&h0]
M  SAL  20  1  20
M  SED  20 [#6&h0]
M  SAL  21  1  21
M  SED  21 [#6&h0]
M  SAL  22  1  22
M  SED  22 [#6&h0]
M  SAL  23  1  23
M  SED  23 [#6&h0]
M  SAL  24  1  24
M  SED  24 [#6&h0]
M  SAL  25  1  25
M  SED  25 [#6&h0]
M  SAL  26  1  26
M  SED  26 [#6&h0]
M  SAL  27  1  27
M  SED  27 [#1&h0]
M  SAL  28  1  28
M  SED  28 [#1&h0]
M  SAL  29  1  29
M  SED  29 [#1&h0]
M  SAL  30  1  30
M  SED  30 [#1&h0]
M  SAL  31  1  31
M  SED  31 [#1&h0]
M  SAL  32  1  32
M  SED  32 [#1&h0]
M  SAL  33  1  33
M  SED  33 [#1&h0]
M  SAL  34  1  34
M  SED  34 [#1&h0]
M  SAL  35  1  35
M  SED  35 [#1&h0]
M  SAL  36  1  36
M  SED  36 [#1&h0]
M  SAL  37  1  37
M  SED  37 [#1&h0]
M  SAL  38  1  38
M  SED  38 [#1&h0]
M  SAL  39  1  39
M  SED  39 [#1&h0]
M  SAL  40  1  40
M  SED  40 [#1&h0]
M  SAL  41  1  41
M  SED  41 [#1&h0]
M  SAL  42  1  42
M  SED  42 [#1&h0]
M  SAL  43  1  43
M  SED  43 [#1&h0]
M  SAL  44  1  44
M  SED  44 [#1&h0]
M  SAL  45  1  45
M  SED  45 [#1&h0]
M  SAL  46  1  46
M  SED  46 [#1&h0]
M  SAL  47  1  47
M  SED  47 [#1&h0]
M  SAL  48  1  48
M  SED  48 [#1&h0]
M  SAL  49  1  49
M  SED  49 [#1&h0]
M  SAL  50  1  50
M  SED  50 [#1&h0]
M  END
>  <Activity>  (156) 
0.01

>  <Mapped(file=2032.csv.activities,property=Cached(PUBCHEM_COMPOUND_CID))>  (156) 
100

>  <MatchIndices>  (156) 
165 

>  <PUBCHEM_ATOM_DEF_STEREO_COUNT>  (156) 
0

>  <PUBCHEM_ATOM_UDEF_STEREO_COUNT>  (156) 
0

>  <PUBCHEM_BONDANNOTATIONS>  (156) 
15  16  8
15  18  8
16  19  8
17  22  8
17  23  8
18  20  8
19  21  8
20  21  8
22  24  8
23  25  8
24  26  8
25  26  8

>  <PUBCHEM_BOND_DEF_STEREO_COUNT>  (156) 
0

>  <PUBCHEM_BOND_UDEF_STEREO_COUNT>  (156) 
0

>  <PUBCHEM_CACTVS_COMPLEXITY>  (156) 
472

>  <PUBCHEM_CACTVS_HBOND_ACCEPTOR>  (156) 
3

>  <PUBCHEM_CACTVS_HBOND_DONOR>  (156) 
0

>  <PUBCHEM_CACTVS_ROTATABLE_BOND>  (156) 
4

>  <PUBCHEM_CACTVS_SUBSKEYS>  (156) 
AAADceB7IAAEAAAAAAAAAAAAAAAAAWAAAAA8YIAAAAAAAFgBQAAAHgIAAAAADArBmCQwwIMAAACIAiVSUACCAAAhBwAIiACIZogIYCLBk7GUIAhghgDIyAcQgIAOBAAAAAACAAAIAAAAAAQAAAAAAAAAAA==

>  <PUBCHEM_CACTVS_TAUTO_COUNT>  (156) 
1

>  <PUBCHEM_CACTVS_TPSA>  (156) 
26.8

>  <PUBCHEM_COMPONENT_COUNT>  (156) 
1

>  <PUBCHEM_COMPOUND_CANONICALIZED>  (156) 
1

>  <PUBCHEM_COMPOUND_CID>  (156) 
9104271

>  <PUBCHEM_COORDINATE_TYPE>  (156) 
1
5
255

>  <PUBCHEM_EXACT_MASS>  (156) 
369.16079

>  <PUBCHEM_HEAVY_ATOM_COUNT>  (156) 
26

>  <PUBCHEM_ISOTOPIC_ATOM_COUNT>  (156) 
0

>  <PUBCHEM_IUPAC_CAS_NAME>  (156) 
2-[4-[(4-chlorophenyl)methyl]-1-piperazinyl]-1-(2,3-dihydroindol-1-yl)ethanone

>  <PUBCHEM_IUPAC_INCHI>  (156) 
InChI=1S/C21H24ClN3O/c22-19-7-5-17(6-8-19)15-23-11-13-24(14-12-23)16-21(26)25-10-9-18-3-1-2-4-20(18)25/h1-8H,9-16H2

>  <PUBCHEM_IUPAC_INCHIKEY>  (156) 
UHEJJZNLPMHGJA-UHFFFAOYSA-N

>  <PUBCHEM_IUPAC_NAME>  (156) 
2-[4-[(4-chlorophenyl)methyl]piperazin-1-yl]-1-(2,3-dihydroindol-1-yl)ethanone

>  <PUBCHEM_IUPAC_OPENEYE_NAME>  (156) 
2-[4-[(4-chlorophenyl)methyl]piperazin-1-yl]-1-indolin-1-yl-ethanone

>  <PUBCHEM_IUPAC_SYSTEMATIC_NAME>  (156) 
2-[4-[(4-chlorophenyl)methyl]piperazin-1-yl]-1-(2,3-dihydroindol-1-yl)ethanone

>  <PUBCHEM_IUPAC_TRADITIONAL_NAME>  (156) 
2-[4-(4-chlorobenzyl)piperazino]-1-indolin-1-yl-ethanone

>  <PUBCHEM_MOLECULAR_FORMULA>  (156) 
C21H24ClN3O

>  <PUBCHEM_MOLECULAR_WEIGHT>  (156) 
369.88776

>  <PUBCHEM_MONOISOTOPIC_WEIGHT>  (156) 
369.16079

>  <PUBCHEM_OPENEYE_CAN_SMILES>  (156) 
C1CN(C2=CC=CC=C21)C(=O)CN3CCN(CC3)CC4=CC=C(C=C4)Cl

>  <PUBCHEM_OPENEYE_ISO_SMILES>  (156) 
C1CN(C2=CC=CC=C21)C(=O)CN3CCN(CC3)CC4=CC=C(C=C4)Cl

>  <PUBCHEM_TOTAL_CHARGE>  (156) 
0

>  <PUBCHEM_XLOGP3_AA>  (156) 
3.3

$$$$
Largest isolated from Written by BCL::WriteToMDL,24817155
     RDKit          2D

 43 45  0 43  0  0  0  0  0  0999 V2000
   -7.4655    2.5702    0.0000 F   0  0  0  0  0  0  0  0  0  0  0  0
    1.2734    3.1016    0.0000 O   0  0  0  0  0  0  0  0  0  0  0  0
    0.8253    0.5424    0.0000 N   0  0  0  0  0  0  0  0  0  0  0  0
   -2.5806    0.7988    0.0000 N   0  0  0  0  0  0  0  0  0  0  0  0
   -1.6150   -0.3491    0.0000 C   0  0  0  0  0  0  0  0  0  0  0  0
   -1.1003   -1.7580    0.0000 C   0  0  0  0  0  0  0  0  0  0  0  0
   -0.6522    0.8011    0.0000 C   0  0  0  0  0  0  0  0  0  0  0  0
    0.3772   -2.0167    0.0000 C   0  0  0  0  0  0  0  0  0  0  0  0
    1.3400   -0.8665    0.0000 C   0  0  0  0  0  0  0  0  0  0  0  0
    1.7881    1.6927    0.0000 C   0  0  0  0  0  0  0  0  0  0  0  0
   -4.0575    0.5366    0.0000 C   0  0  0  0  0  0  0  0  0  0  0  0
    3.2656    1.4340    0.0000 C   0  0  0  0  0  0  0  0  0  0  0  0
   -5.0231    1.6845    0.0000 C   0  0  0  0  0  0  0  0  0  0  0  0
   -4.5688   -0.8736    0.0000 C   0  0  0  0  0  0  0  0  0  0  0  0
    3.7803    0.0250    0.0000 C   0  0  0  0  0  0  0  0  0  0  0  0
    4.2284    2.5842    0.0000 C   0  0  0  0  0  0  0  0  0  0  0  0
   -6.5000    1.4223    0.0000 C   0  0  0  0  0  0  0  0  0  0  0  0
   -6.0457   -1.1358    0.0000 C   0  0  0  0  0  0  0  0  0  0  0  0
    5.2579   -0.2337    0.0000 C   0  0  0  0  0  0  0  0  0  0  0  0
   -7.0113    0.0121    0.0000 C   0  0  0  0  0  0  0  0  0  0  0  0
    5.7059    2.3255    0.0000 C   0  0  0  0  0  0  0  0  0  0  0  0
    6.2207    0.9166    0.0000 C   0  0  0  0  0  0  0  0  0  0  0  0
    5.7726   -1.6426    0.0000 C   0  0  0  0  0  0  0  0  0  0  0  0
    6.2873   -3.0515    0.0000 C   0  0  0  0  0  0  0  0  0  0  0  0
   -2.9132   -1.1006    0.0000 H   0  0  0  0  0  0  0  0  0  0  0  0
   -1.0985   -3.2580    0.0000 H   0  0  0  0  0  0  0  0  0  0  0  0
   -2.5772   -2.0202    0.0000 H   0  0  0  0  0  0  0  0  0  0  0  0
   -1.4389    1.3925    0.0000 H   0  0  0  0  0  0  0  0  0  0  0  0
   -0.1409    2.2113    0.0000 H   0  0  0  0  0  0  0  0  0  0  0  0
    1.6771   -2.7651    0.0000 H   0  0  0  0  0  0  0  0  0  0  0  0
   -0.1341   -3.4269    0.0000 H   0  0  0  0  0  0  0  0  0  0  0  0
    2.6381   -0.1149    0.0000 H   0  0  0  0  0  0  0  0  0  0  0  0
    2.3056   -2.0144    0.0000 H   0  0  0  0  0  0  0  0  0  0  0  0
   -2.3604    1.7580    0.0000 H   0  0  0  0  0  0  0  0  0  0  0  0
   -4.5117    3.0947    0.0000 H   0  0  0  0  0  0  0  0  0  0  0  0
   -3.6033   -2.0215    0.0000 H   0  0  0  0  0  0  0  0  0  0  0  0
    2.8175   -1.1252    0.0000 H   0  0  0  0  0  0  0  0  0  0  0  0
    3.7137    3.9931    0.0000 H   0  0  0  0  0  0  0  0  0  0  0  0
   -6.5571   -2.5460    0.0000 H   0  0  0  0  0  0  0  0  0  0  0  0
   -8.4882   -0.2501    0.0000 H   0  0  0  0  0  0  0  0  0  0  0  0
    6.6687    3.4757    0.0000 H   0  0  0  0  0  0  0  0  0  0  0  0
    7.6982    0.6579    0.0000 H   0  0  0  0  0  0  0  0  0  0  0  0
    6.8020   -4.4604    0.0000 H   0  0  0  0  0  0  0  0  0  0  0  0
  1 17  1  0
  2 10  2  0
  3  7  1  0
  3  9  1  0
  3 10  1  0
  4  5  1  0
  4 11  1  0
  4 34  1  0
  5  6  1  0
  5  7  1  0
  5 25  1  1
  6  8  1  0
  6 26  1  0
  6 27  1  0
  7 28  1  0
  7 29  1  0
  8  9  1  0
  8 30  1  0
  8 31  1  0
  9 32  1  0
  9 33  1  0
 10 12  1  0
 11 13  2  0
 11 14  1  0
 12 15  2  0
 12 16  1  0
 13 17  1  0
 13 35  1  0
 14 18  2  0
 14 36  1  0
 15 19  1  0
 15 37  1  0
 16 21  2  0
 16 38  1  0
 17 20  2  0
 18 20  1  0
 18 39  1  0
 19 22  2  0
 19 23  1  0
 20 40  1  0
 21 22  1  0
 21 41  1  0
 22 42  1  0
 23 24  3  0
 24 43  1  0
M  STY  8   1 DAT   2 DAT   3 DAT   4 DAT   5 DAT   6 DAT   7 DAT   8 DAT
M  STY  8   9 DAT  10 DAT  11 DAT  12 DAT  13 DAT  14 DAT  15 DAT  16 DAT
M  STY  8  17 DAT  18 DAT  19 DAT  20 DAT  21 DAT  22 DAT  23 DAT  24 DAT
M  STY  8  25 DAT  26 DAT  27 DAT  28 DAT  29 DAT  30 DAT  31 DAT  32 DAT
M  STY  8  33 DAT  34 DAT  35 DAT  36 DAT  37 DAT  38 DAT  39 DAT  40 DAT
M  STY  3  41 DAT  42 DAT  43 DAT
M  SAL   1  1   1
M  SED   1 [#9&h0]
M  SAL   2  1   2
M  SED   2 [#8&h0]
M  SAL   3  1   3
M  SED   3 [#7&h0]
M  SAL   4  1   4
M  SED   4 [#7&h0]
M  SAL   5  1   5
M  SED   5 [#6&h0]
M  SAL   6  1   6
M  SED   6 [#6&h0]
M  SAL   7  1   7
M  SED   7 [#6&h0]
M  SAL   8  1   8
M  SED   8 [#6&h0]
M  SAL   9  1   9
M  SED   9 [#6&h0]
M  SAL  10  1  10
M  SED  10 [#6&h0]
M  SAL  11  1  11
M  SED  11 [#6&h0]
M  SAL  12  1  12
M  SED  12 [#6&h0]
M  SAL  13  1  13
M  SED  13 [#6&h0]
M  SAL  14  1  14
M  SED  14 [#6&h0]
M  SAL  15  1  15
M  SED  15 [#6&h0]
M  SAL  16  1  16
M  SED  16 [#6&h0]
M  SAL  17  1  17
M  SED  17 [#6&h0]
M  SAL  18  1  18
M  SED  18 [#6&h0]
M  SAL  19  1  19
M  SED  19 [#6&h0]
M  SAL  20  1  20
M  SED  20 [#6&h0]
M  SAL  21  1  21
M  SED  21 [#6&h0]
M  SAL  22  1  22
M  SED  22 [#6&h0]
M  SAL  23  1  23
M  SED  23 [#6&h0]
M  SAL  24  1  24
M  SED  24 [#6&h0]
M  SAL  25  1  25
M  SED  25 [#1&h0]
M  SAL  26  1  26
M  SED  26 [#1&h0]
M  SAL  27  1  27
M  SED  27 [#1&h0]
M  SAL  28  1  28
M  SED  28 [#1&h0]
M  SAL  29  1  29
M  SED  29 [#1&h0]
M  SAL  30  1  30
M  SED  30 [#1&h0]
M  SAL  31  1  31
M  SED  31 [#1&h0]
M  SAL  32  1  32
M  SED  32 [#1&h0]
M  SAL  33  1  33
M  SED  33 [#1&h0]
M  SAL  34  1  34
M  SED  34 [#1&h0]
M  SAL  35  1  35
M  SED  35 [#1&h0]
M  SAL  36  1  36
M  SED  36 [#1&h0]
M  SAL  37  1  37
M  SED  37 [#1&h0]
M  SAL  38  1  38
M  SED  38 [#1&h0]
M  SAL  39  1  39
M  SED  39 [#1&h0]
M  SAL  40  1  40
M  SED  40 [#1&h0]
M  SAL  41  1  41
M  SED  41 [#1&h0]
M  SAL  42  1  42
M  SED  42 [#1&h0]
M  SAL  43  1  43
M  SED  43 [#1&h0]
M  END
>  <Activity>  (157) 
0.01

>  <Mapped(file=2032.csv.activities,property=Cached(PUBCHEM_COMPOUND_CID))>  (157) 
100

>  <MatchIndices>  (157) 
105 

>  <PUBCHEM_ATOM_DEF_STEREO_COUNT>  (157) 
0

>  <PUBCHEM_ATOM_UDEF_STEREO_COUNT>  (157) 
1

>  <PUBCHEM_BONDANNOTATIONS>  (157) 
11  13  8
11  14  8
12  15  8
12  16  8
13  17  8
14  18  8
15  19  8
16  21  8
17  20  8
18  20  8
19  22  8
21  22  8
5  4  3

>  <PUBCHEM_BOND_DEF_STEREO_COUNT>  (157) 
0

>  <PUBCHEM_BOND_UDEF_STEREO_COUNT>  (157) 
0

>  <PUBCHEM_CACTVS_COMPLEXITY>  (157) 
485

>  <PUBCHEM_CACTVS_HBOND_ACCEPTOR>  (157) 
3

>  <PUBCHEM_CACTVS_HBOND_DONOR>  (157) 
1

>  <PUBCHEM_CACTVS_ROTATABLE_BOND>  (157) 
4

>  <PUBCHEM_CACTVS_SUBSKEYS>  (157) 
AAADceB7IQAAAAAAAAAAAAAAAAAAAAAAAAA8YIAAAAAAAAABQAAAHwAQAAAADCjBmAwwwIPAAADIGiVSUAiCAAAlAgAIiIEIZMgIYDLAlZGUIQhglgDIyYcYiECOAAACAAAAAAAAAAQAAAAAAAAAAAAAAA==

>  <PUBCHEM_CACTVS_TAUTO_COUNT>  (157) 
1

>  <PUBCHEM_CACTVS_TPSA>  (157) 
32.3

>  <PUBCHEM_COMPONENT_COUNT>  (157) 
1

>  <PUBCHEM_COMPOUND_CANONICALIZED>  (157) 
1

>  <PUBCHEM_COMPOUND_CID>  (157) 
24817155

>  <PUBCHEM_COORDINATE_TYPE>  (157) 
1
5
255

>  <PUBCHEM_EXACT_MASS>  (157) 
322.148141

>  <PUBCHEM_HEAVY_ATOM_COUNT>  (157) 
24

>  <PUBCHEM_ISOTOPIC_ATOM_COUNT>  (157) 
0

>  <PUBCHEM_IUPAC_CAS_NAME>  (157) 
(3-ethynylphenyl)-[3-(3-fluoroanilino)-1-piperidinyl]methanone

>  <PUBCHEM_IUPAC_INCHI>  (157) 
InChI=1S/C20H19FN2O/c1-2-15-6-3-7-16(12-15)20(24)23-11-5-10-19(14-23)22-18-9-4-8-17(21)13-18/h1,3-4,6-9,12-13,19,22H,5,10-11,14H2

>  <PUBCHEM_IUPAC_INCHIKEY>  (157) 
KMAXHEMHAUVWDK-UHFFFAOYSA-N

>  <PUBCHEM_IUPAC_NAME>  (157) 
(3-ethynylphenyl)-[3-(3-fluoroanilino)piperidin-1-yl]methanone

>  <PUBCHEM_IUPAC_OPENEYE_NAME>  (157) 
(3-ethynylphenyl)-[3-(3-fluoroanilino)-1-piperidyl]methanone

>  <PUBCHEM_IUPAC_SYSTEMATIC_NAME>  (157) 
(3-ethynylphenyl)-[3-[(3-fluorophenyl)amino]piperidin-1-yl]methanone

>  <PUBCHEM_IUPAC_TRADITIONAL_NAME>  (157) 
(3-ethynylphenyl)-[3-(3-fluoroanilino)piperidino]methanone

>  <PUBCHEM_MOLECULAR_FORMULA>  (157) 
C20H19FN2O

>  <PUBCHEM_MOLECULAR_WEIGHT>  (157) 
322.376063

>  <PUBCHEM_MONOISOTOPIC_WEIGHT>  (157) 
322.148141

>  <PUBCHEM_OPENEYE_CAN_SMILES>  (157) 
C#CC1=CC(=CC=C1)C(=O)N2CCCC(C2)NC3=CC(=CC=C3)F

>  <PUBCHEM_OPENEYE_ISO_SMILES>  (157) 
C#CC1=CC(=CC=C1)C(=O)N2CCCC(C2)NC3=CC(=CC=C3)F

>  <PUBCHEM_TOTAL_CHARGE>  (157) 
0

>  <PUBCHEM_XLOGP3_AA>  (157) 
4

$$$$
Largest isolated from Written by BCL::WriteToMDL,721013
     RDKit          2D

 40 42  0 40  0  0  0  0  0  0999 V2000
   -5.2489   -0.4290    0.0000 O   0  0  0  0  0  0  0  0  0  0  0  0
   -3.4577    1.4529    0.0000 O   0  0  0  0  0  0  0  0  0  0  0  0
    1.2407   -1.2257    0.0000 N   0  0  0  0  0  0  0  0  0  0  0  0
    0.5065    1.2665    0.0000 N   0  0  0  0  0  0  0  0  0  0  0  0
    2.2977    3.1484    0.0000 N   0  0  0  0  0  0  0  0  0  0  0  0
    3.0319    0.6562    0.0000 C   0  0  0  0  0  0  0  0  0  0  0  0
    1.5930    0.2323    0.0000 C   0  0  0  0  0  0  0  0  0  0  0  0
    3.3842    2.1142    0.0000 C   0  0  0  0  0  0  0  0  0  0  0  0
    4.1184   -0.3780    0.0000 C   0  0  0  0  0  0  0  0  0  0  0  0
    5.5573    0.0459    0.0000 C   0  0  0  0  0  0  0  0  0  0  0  0
   -0.1982   -1.6496    0.0000 C   0  0  0  0  0  0  0  0  0  0  0  0
    4.8231    2.5381    0.0000 C   0  0  0  0  0  0  0  0  0  0  0  0
    5.9096    1.5039    0.0000 C   0  0  0  0  0  0  0  0  0  0  0  0
   -1.2847   -0.6154    0.0000 C   0  0  0  0  0  0  0  0  0  0  0  0
   -2.7236   -1.0393    0.0000 C   0  0  0  0  0  0  0  0  0  0  0  0
   -0.5505   -3.1076    0.0000 C   0  0  0  0  0  0  0  0  0  0  0  0
    6.6438   -0.9883    0.0000 C   0  0  0  0  0  0  0  0  0  0  0  0
   -3.0759   -2.4974    0.0000 C   0  0  0  0  0  0  0  0  0  0  0  0
   -1.9894   -3.5315    0.0000 C   0  0  0  0  0  0  0  0  0  0  0  0
    0.8589    2.7245    0.0000 C   0  0  0  0  0  0  0  0  0  0  0  0
   -3.8101   -0.0052    0.0000 C   0  0  0  0  0  0  0  0  0  0  0  0
   -6.3355    0.6051    0.0000 C   0  0  0  0  0  0  0  0  0  0  0  0
   -7.4220    1.6393    0.0000 C   0  0  0  0  0  0  0  0  0  0  0  0
    3.7661   -1.8360    0.0000 H   0  0  0  0  0  0  0  0  0  0  0  0
    2.3272   -2.2599    0.0000 H   0  0  0  0  0  0  0  0  0  0  0  0
    5.1755    3.9961    0.0000 H   0  0  0  0  0  0  0  0  0  0  0  0
    7.3485    1.9278    0.0000 H   0  0  0  0  0  0  0  0  0  0  0  0
   -0.9323    0.8426    0.0000 H   0  0  0  0  0  0  0  0  0  0  0  0
    0.5360   -4.1418    0.0000 H   0  0  0  0  0  0  0  0  0  0  0  0
    7.6780    0.0983    0.0000 H   0  0  0  0  0  0  0  0  0  0  0  0
    5.6096   -2.0748    0.0000 H   0  0  0  0  0  0  0  0  0  0  0  0
    7.7303   -2.0224    0.0000 H   0  0  0  0  0  0  0  0  0  0  0  0
   -4.5148   -2.9212    0.0000 H   0  0  0  0  0  0  0  0  0  0  0  0
   -2.3417   -4.9895    0.0000 H   0  0  0  0  0  0  0  0  0  0  0  0
   -0.2277    3.7586    0.0000 H   0  0  0  0  0  0  0  0  0  0  0  0
   -7.3696   -0.4814    0.0000 H   0  0  0  0  0  0  0  0  0  0  0  0
   -5.3013    1.6916    0.0000 H   0  0  0  0  0  0  0  0  0  0  0  0
   -6.3878    2.7258    0.0000 H   0  0  0  0  0  0  0  0  0  0  0  0
   -8.4561    0.5527    0.0000 H   0  0  0  0  0  0  0  0  0  0  0  0
   -8.5085    2.6734    0.0000 H   0  0  0  0  0  0  0  0  0  0  0  0
  1 21  1  0
  1 22  1  0
  2 21  2  0
  3  7  1  0
  3 11  1  0
  3 25  1  0
  4  7  2  0
  4 20  1  0
  5  8  1  0
  5 20  2  0
  6  7  1  0
  6  8  2  0
  6  9  1  0
  8 12  1  0
  9 10  2  0
  9 24  1  0
 10 13  1  0
 10 17  1  0
 11 14  2  0
 11 16  1  0
 12 13  2  0
 12 26  1  0
 13 27  1  0
 14 15  1  0
 14 28  1  0
 15 18  2  0
 15 21  1  0
 16 19  2  0
 16 29  1  0
 17 30  1  0
 17 31  1  0
 17 32  1  0
 18 19  1  0
 18 33  1  0
 19 34  1  0
 20 35  1  0
 22 23  1  0
 22 36  1  0
 22 37  1  0
 23 38  1  0
 23 39  1  0
 23 40  1  0
M  STY  8   1 DAT   2 DAT   3 DAT   4 DAT   5 DAT   6 DAT   7 DAT   8 DAT
M  STY  8   9 DAT  10 DAT  11 DAT  12 DAT  13 DAT  14 DAT  15 DAT  16 DAT
M  STY  8  17 DAT  18 DAT  19 DAT  20 DAT  21 DAT  22 DAT  23 DAT  24 DAT
M  STY  8  25 DAT  26 DAT  27 DAT  28 DAT  29 DAT  30 DAT  31 DAT  32 DAT
M  STY  8  33 DAT  34 DAT  35 DAT  36 DAT  37 DAT  38 DAT  39 DAT  40 DAT
M  SAL   1  1   1
M  SED   1 [#8&h0]
M  SAL   2  1   2
M  SED   2 [#8&h0]
M  SAL   3  1   3
M  SED   3 [#7&h0]
M  SAL   4  1   4
M  SED   4 [#7&h0]
M  SAL   5  1   5
M  SED   5 [#7&h0]
M  SAL   6  1   6
M  SED   6 [#6&h0]
M  SAL   7  1   7
M  SED   7 [#6&h0]
M  SAL   8  1   8
M  SED   8 [#6&h0]
M  SAL   9  1   9
M  SED   9 [#6&h0]
M  SAL  10  1  10
M  SED  10 [#6&h0]
M  SAL  11  1  11
M  SED  11 [#6&h0]
M  SAL  12  1  12
M  SED  12 [#6&h0]
M  SAL  13  1  13
M  SED  13 [#6&h0]
M  SAL  14  1  14
M  SED  14 [#6&h0]
M  SAL  15  1  15
M  SED  15 [#6&h0]
M  SAL  16  1  16
M  SED  16 [#6&h0]
M  SAL  17  1  17
M  SED  17 [#6&h0]
M  SAL  18  1  18
M  SED  18 [#6&h0]
M  SAL  19  1  19
M  SED  19 [#6&h0]
M  SAL  20  1  20
M  SED  20 [#6&h0]
M  SAL  21  1  21
M  SED  21 [#6&h0]
M  SAL  22  1  22
M  SED  22 [#6&h0]
M  SAL  23  1  23
M  SED  23 [#6&h0]
M  SAL  24  1  24
M  SED  24 [#1&h0]
M  SAL  25  1  25
M  SED  25 [#1&h0]
M  SAL  26  1  26
M  SED  26 [#1&h0]
M  SAL  27  1  27
M  SED  27 [#1&h0]
M  SAL  28  1  28
M  SED  28 [#1&h0]
M  SAL  29  1  29
M  SED  29 [#1&h0]
M  SAL  30  1  30
M  SED  30 [#1&h0]
M  SAL  31  1  31
M  SED  31 [#1&h0]
M  SAL  32  1  32
M  SED  32 [#1&h0]
M  SAL  33  1  33
M  SED  33 [#1&h0]
M  SAL  34  1  34
M  SED  34 [#1&h0]
M  SAL  35  1  35
M  SED  35 [#1&h0]
M  SAL  36  1  36
M  SED  36 [#1&h0]
M  SAL  37  1  37
M  SED  37 [#1&h0]
M  SAL  38  1  38
M  SED  38 [#1&h0]
M  SAL  39  1  39
M  SED  39 [#1&h0]
M  SAL  40  1  40
M  SED  40 [#1&h0]
M  END
>  <Activity>  (158) 
0.01

>  <Mapped(file=2032.csv.activities,property=Cached(PUBCHEM_COMPOUND_CID))>  (158) 
100

>  <MatchIndices>  (158) 
114 

>  <PUBCHEM_ATOM_DEF_STEREO_COUNT>  (158) 
0

>  <PUBCHEM_ATOM_UDEF_STEREO_COUNT>  (158) 
0

>  <PUBCHEM_BONDANNOTATIONS>  (158) 
10  13  8
11  14  8
11  16  8
12  13  8
14  15  8
15  18  8
16  19  8
18  19  8
4  20  8
4  7  8
5  20  8
5  8  8
6  7  8
6  8  8
6  9  8
8  12  8
9  10  8

>  <PUBCHEM_BOND_DEF_STEREO_COUNT>  (158) 
0

>  <PUBCHEM_BOND_UDEF_STEREO_COUNT>  (158) 
0

>  <PUBCHEM_CACTVS_COMPLEXITY>  (158) 
404

>  <PUBCHEM_CACTVS_HBOND_ACCEPTOR>  (158) 
2

>  <PUBCHEM_CACTVS_HBOND_DONOR>  (158) 
1

>  <PUBCHEM_CACTVS_ROTATABLE_BOND>  (158) 
5

>  <PUBCHEM_CACTVS_SUBSKEYS>  (158) 
AAADceB7MAAAAAAAAAAAAAAAAAAAAAAAAAA8YIAAAAAAAACx9AAAHgAQAAAADAihngY3+PbIFACoAybzbACCgCk1AqAJ2CE4bNiILvLA/dmGNQhs0API6ae8yGCOCAACQAACAAAQAASAAAQAAAAAAAAAAA==

>  <PUBCHEM_CACTVS_TAUTO_COUNT>  (158) 
3

>  <PUBCHEM_CACTVS_TPSA>  (158) 
64.1

>  <PUBCHEM_COMPONENT_COUNT>  (158) 
1

>  <PUBCHEM_COMPOUND_CANONICALIZED>  (158) 
1

>  <PUBCHEM_COMPOUND_CID>  (158) 
721013

>  <PUBCHEM_COORDINATE_TYPE>  (158) 
1
5
255

>  <PUBCHEM_EXACT_MASS>  (158) 
307.132077

>  <PUBCHEM_HEAVY_ATOM_COUNT>  (158) 
23

>  <PUBCHEM_ISOTOPIC_ATOM_COUNT>  (158) 
0

>  <PUBCHEM_IUPAC_CAS_NAME>  (158) 
3-[(6-methyl-4-quinazolinyl)amino]benzoic acid ethyl ester

>  <PUBCHEM_IUPAC_INCHI>  (158) 
InChI=1S/C18H17N3O2/c1-3-23-18(22)13-5-4-6-14(10-13)21-17-15-9-12(2)7-8-16(15)19-11-20-17/h4-11H,3H2,1-2H3,(H,19,20,21)

>  <PUBCHEM_IUPAC_INCHIKEY>  (158) 
LWFRPABFRKFROJ-UHFFFAOYSA-N

>  <PUBCHEM_IUPAC_NAME>  (158) 
ethyl 3-[(6-methylquinazolin-4-yl)amino]benzoate

>  <PUBCHEM_IUPAC_OPENEYE_NAME>  (158) 
ethyl 3-[(6-methylquinazolin-4-yl)amino]benzoate

>  <PUBCHEM_IUPAC_SYSTEMATIC_NAME>  (158) 
ethyl 3-[(6-methylquinazolin-4-yl)amino]benzoate

>  <PUBCHEM_IUPAC_TRADITIONAL_NAME>  (158) 
3-[(6-methylquinazolin-4-yl)amino]benzoic acid ethyl ester

>  <PUBCHEM_MOLECULAR_FORMULA>  (158) 
C18H17N3O2

>  <PUBCHEM_MOLECULAR_WEIGHT>  (158) 
307.34648

>  <PUBCHEM_MONOISOTOPIC_WEIGHT>  (158) 
307.132077

>  <PUBCHEM_OPENEYE_CAN_SMILES>  (158) 
CCOC(=O)C1=CC(=CC=C1)NC2=NC=NC3=C2C=C(C=C3)C

>  <PUBCHEM_OPENEYE_ISO_SMILES>  (158) 
CCOC(=O)C1=CC(=CC=C1)NC2=NC=NC3=C2C=C(C=C3)C

>  <PUBCHEM_TOTAL_CHARGE>  (158) 
0

>  <PUBCHEM_XLOGP3_AA>  (158) 
4

$$$$
Largest isolated from Written by BCL::WriteToMDL,7951074
     RDKit          2D

 48 49  0 48  0  0  0  0  0  0999 V2000
   -9.0030    3.4416    0.0000 Cl  0  0  0  0  0  0  0  0  0  0  0  0
   -5.2903   -1.2718    0.0000 O   0  0  0  0  0  0  0  0  0  0  0  0
   -1.3930   -2.0209    0.0000 O   0  0  0  0  0  0  0  0  0  0  0  0
   -1.5991    0.4722    0.0000 O   0  0  0  0  0  0  0  0  0  0  0  0
    2.5043   -2.7700    0.0000 O   0  0  0  0  0  0  0  0  0  0  0  0
    2.1325   -0.1986    0.0000 N   0  0  0  0  0  0  0  0  0  0  0  0
   -3.8057   -1.0572    0.0000 C   0  0  0  0  0  0  0  0  0  0  0  0
   -3.5911   -2.5417    0.0000 C   0  0  0  0  0  0  0  0  0  0  0  0
   -4.0204    0.4274    0.0000 C   0  0  0  0  0  0  0  0  0  0  0  0
   -2.3212   -0.8425    0.0000 C   0  0  0  0  0  0  0  0  0  0  0  0
    5.1017    0.2307    0.0000 C   0  0  0  0  0  0  0  0  0  0  0  0
    3.6171    0.0160    0.0000 C   0  0  0  0  0  0  0  0  0  0  0  0
    6.5862    0.4453    0.0000 C   0  0  0  0  0  0  0  0  0  0  0  0
   -6.2185   -0.0935    0.0000 C   0  0  0  0  0  0  0  0  0  0  0  0
    0.0916   -1.8063    0.0000 C   0  0  0  0  0  0  0  0  0  0  0  0
    1.5761   -1.5916    0.0000 C   0  0  0  0  0  0  0  0  0  0  0  0
    7.5144   -0.7331    0.0000 C   0  0  0  0  0  0  0  0  0  0  0  0
    7.1426    1.8383    0.0000 C   0  0  0  0  0  0  0  0  0  0  0  0
   -7.7030   -0.3081    0.0000 C   0  0  0  0  0  0  0  0  0  0  0  0
   -5.6621    1.2995    0.0000 C   0  0  0  0  0  0  0  0  0  0  0  0
    8.9989   -0.5184    0.0000 C   0  0  0  0  0  0  0  0  0  0  0  0
    8.6272    2.0529    0.0000 C   0  0  0  0  0  0  0  0  0  0  0  0
    9.5553    0.8746    0.0000 C   0  0  0  0  0  0  0  0  0  0  0  0
   -8.6312    0.8703    0.0000 C   0  0  0  0  0  0  0  0  0  0  0  0
   -6.5902    2.4779    0.0000 C   0  0  0  0  0  0  0  0  0  0  0  0
   -8.0748    2.2632    0.0000 C   0  0  0  0  0  0  0  0  0  0  0  0
   -5.0757   -2.7564    0.0000 H   0  0  0  0  0  0  0  0  0  0  0  0
   -2.5730    0.8214    0.0000 H   0  0  0  0  0  0  0  0  0  0  0  0
   -5.2292    0.5497    0.0000 H   0  0  0  0  0  0  0  0  0  0  0  0
   -4.0374    1.2244    0.0000 H   0  0  0  0  0  0  0  0  0  0  0  0
   -2.0987   -2.6927    0.0000 H   0  0  0  0  0  0  0  0  0  0  0  0
   -3.3765   -4.0263    0.0000 H   0  0  0  0  0  0  0  0  0  0  0  0
    5.3163   -1.2539    0.0000 H   0  0  0  0  0  0  0  0  0  0  0  0
    4.8870    1.7152    0.0000 H   0  0  0  0  0  0  0  0  0  0  0  0
    3.4024    1.5006    0.0000 H   0  0  0  0  0  0  0  0  0  0  0  0
    3.8317   -1.4686    0.0000 H   0  0  0  0  0  0  0  0  0  0  0  0
   -0.1231   -0.3217    0.0000 H   0  0  0  0  0  0  0  0  0  0  0  0
    0.3062   -3.2908    0.0000 H   0  0  0  0  0  0  0  0  0  0  0  0
    1.2044    0.9797    0.0000 H   0  0  0  0  0  0  0  0  0  0  0  0
    6.9580   -2.1261    0.0000 H   0  0  0  0  0  0  0  0  0  0  0  0
    6.2145    3.0166    0.0000 H   0  0  0  0  0  0  0  0  0  0  0  0
   -8.2594   -1.7011    0.0000 H   0  0  0  0  0  0  0  0  0  0  0  0
   -4.8929    1.5089    0.0000 H   0  0  0  0  0  0  0  0  0  0  0  0
    9.9271   -1.6968    0.0000 H   0  0  0  0  0  0  0  0  0  0  0  0
    9.1836    3.4459    0.0000 H   0  0  0  0  0  0  0  0  0  0  0  0
   11.0399    1.0892    0.0000 H   0  0  0  0  0  0  0  0  0  0  0  0
  -10.1158    0.6556    0.0000 H   0  0  0  0  0  0  0  0  0  0  0  0
   -6.0338    3.8709    0.0000 H   0  0  0  0  0  0  0  0  0  0  0  0
  1 26  1  0
  2  7  1  0
  2 14  1  0
  3 10  1  0
  3 15  1  0
  4 10  2  0
  5 16  2  0
  6 12  1  0
  6 16  1  0
  6 39  1  0
  7  8  1  0
  7  9  1  0
  7 10  1  0
  8 27  1  0
  8 31  1  0
  8 32  1  0
  9 28  1  0
  9 29  1  0
  9 30  1  0
 11 12  1  0
 11 13  1  0
 11 33  1  0
 11 34  1  0
 12 35  1  0
 12 36  1  0
 13 17  2  0
 13 18  1  0
 14 19  2  0
 14 20  1  0
 15 16  1  0
 15 37  1  0
 15 38  1  0
 17 21  1  0
 17 40  1  0
 18 22  2  0
 18 41  1  0
 19 24  1  0
 19 42  1  0
 20 25  2  0
 20 43  1  0
 21 23  2  0
 21 44  1  0
 22 23  1  0
 22 45  1  0
 23 46  1  0
 24 26  2  0
 24 47  1  0
 25 26  1  0
 25 48  1  0
M  STY  8   1 DAT   2 DAT   3 DAT   4 DAT   5 DAT   6 DAT   7 DAT   8 DAT
M  STY  8   9 DAT  10 DAT  11 DAT  12 DAT  13 DAT  14 DAT  15 DAT  16 DAT
M  STY  8  17 DAT  18 DAT  19 DAT  20 DAT  21 DAT  22 DAT  23 DAT  24 DAT
M  STY  8  25 DAT  26 DAT  27 DAT  28 DAT  29 DAT  30 DAT  31 DAT  32 DAT
M  STY  8  33 DAT  34 DAT  35 DAT  36 DAT  37 DAT  38 DAT  39 DAT  40 DAT
M  STY  8  41 DAT  42 DAT  43 DAT  44 DAT  45 DAT  46 DAT  47 DAT  48 DAT
M  SAL   1  1   1
M  SED   1 [#17&h0]
M  SAL   2  1   2
M  SED   2 [#8&h0]
M  SAL   3  1   3
M  SED   3 [#8&h0]
M  SAL   4  1   4
M  SED   4 [#8&h0]
M  SAL   5  1   5
M  SED   5 [#8&h0]
M  SAL   6  1   6
M  SED   6 [#7&h0]
M  SAL   7  1   7
M  SED   7 [#6&h0]
M  SAL   8  1   8
M  SED   8 [#6&h0]
M  SAL   9  1   9
M  SED   9 [#6&h0]
M  SAL  10  1  10
M  SED  10 [#6&h0]
M  SAL  11  1  11
M  SED  11 [#6&h0]
M  SAL  12  1  12
M  SED  12 [#6&h0]
M  SAL  13  1  13
M  SED  13 [#6&h0]
M  SAL  14  1  14
M  SED  14 [#6&h0]
M  SAL  15  1  15
M  SED  15 [#6&h0]
M  SAL  16  1  16
M  SED  16 [#6&h0]
M  SAL  17  1  17
M  SED  17 [#6&h0]
M  SAL  18  1  18
M  SED  18 [#6&h0]
M  SAL  19  1  19
M  SED  19 [#6&h0]
M  SAL  20  1  20
M  SED  20 [#6&h0]
M  SAL  21  1  21
M  SED  21 [#6&h0]
M  SAL  22  1  22
M  SED  22 [#6&h0]
M  SAL  23  1  23
M  SED  23 [#6&h0]
M  SAL  24  1  24
M  SED  24 [#6&h0]
M  SAL  25  1  25
M  SED  25 [#6&h0]
M  SAL  26  1  26
M  SED  26 [#6&h0]
M  SAL  27  1  27
M  SED  27 [#1&h0]
M  SAL  28  1  28
M  SED  28 [#1&h0]
M  SAL  29  1  29
M  SED  29 [#1&h0]
M  SAL  30  1  30
M  SED  30 [#1&h0]
M  SAL  31  1  31
M  SED  31 [#1&h0]
M  SAL  32  1  32
M  SED  32 [#1&h0]
M  SAL  33  1  33
M  SED  33 [#1&h0]
M  SAL  34  1  34
M  SED  34 [#1&h0]
M  SAL  35  1  35
M  SED  35 [#1&h0]
M  SAL  36  1  36
M  SED  36 [#1&h0]
M  SAL  37  1  37
M  SED  37 [#1&h0]
M  SAL  38  1  38
M  SED  38 [#1&h0]
M  SAL  39  1  39
M  SED  39 [#1&h0]
M  SAL  40  1  40
M  SED  40 [#1&h0]
M  SAL  41  1  41
M  SED  41 [#1&h0]
M  SAL  42  1  42
M  SED  42 [#1&h0]
M  SAL  43  1  43
M  SED  43 [#1&h0]
M  SAL  44  1  44
M  SED  44 [#1&h0]
M  SAL  45  1  45
M  SED  45 [#1&h0]
M  SAL  46  1  46
M  SED  46 [#1&h0]
M  SAL  47  1  47
M  SED  47 [#1&h0]
M  SAL  48  1  48
M  SED  48 [#1&h0]
M  END
>  <Activity>  (159) 
0.01

>  <Mapped(file=2032.csv.activities,property=Cached(PUBCHEM_COMPOUND_CID))>  (159) 
100

>  <MatchIndices>  (159) 
86 

>  <PUBCHEM_ATOM_DEF_STEREO_COUNT>  (159) 
0

>  <PUBCHEM_ATOM_UDEF_STEREO_COUNT>  (159) 
0

>  <PUBCHEM_BONDANNOTATIONS>  (159) 
13  17  8
13  18  8
14  19  8
14  20  8
17  21  8
18  22  8
19  24  8
20  25  8
21  23  8
22  23  8
24  26  8
25  26  8

>  <PUBCHEM_BOND_DEF_STEREO_COUNT>  (159) 
0

>  <PUBCHEM_BOND_UDEF_STEREO_COUNT>  (159) 
0

>  <PUBCHEM_CACTVS_COMPLEXITY>  (159) 
455

>  <PUBCHEM_CACTVS_HBOND_ACCEPTOR>  (159) 
4

>  <PUBCHEM_CACTVS_HBOND_DONOR>  (159) 
1

>  <PUBCHEM_CACTVS_ROTATABLE_BOND>  (159) 
9

>  <PUBCHEM_CACTVS_SUBSKEYS>  (159) 
AAADceB6OAAEAAAAAAAAAAAAAAAAAAAAAAAwYAAAAAAAAAABQAAAHgIQAAAADEbhmCYyDoLABACIAiHSGAICCAAgJQAIiIFOCogPJiKFsx+HOCCk1hGaqAeQwIAOACAAAAAAAAAAQAAAAAAAAAAAAAAAAA==

>  <PUBCHEM_CACTVS_TAUTO_COUNT>  (159) 
2

>  <PUBCHEM_CACTVS_TPSA>  (159) 
64.6

>  <PUBCHEM_COMPONENT_COUNT>  (159) 
1

>  <PUBCHEM_COMPOUND_CANONICALIZED>  (159) 
1

>  <PUBCHEM_COMPOUND_CID>  (159) 
7951074

>  <PUBCHEM_COORDINATE_TYPE>  (159) 
1
5
255

>  <PUBCHEM_EXACT_MASS>  (159) 
375.123736

>  <PUBCHEM_HEAVY_ATOM_COUNT>  (159) 
26

>  <PUBCHEM_ISOTOPIC_ATOM_COUNT>  (159) 
0

>  <PUBCHEM_IUPAC_CAS_NAME>  (159) 
2-(4-chlorophenoxy)-2-methylpropanoic acid [2-oxo-2-(2-phenylethylamino)ethyl] ester

>  <PUBCHEM_IUPAC_INCHI>  (159) 
InChI=1S/C20H22ClNO4/c1-20(2,26-17-10-8-16(21)9-11-17)19(24)25-14-18(23)22-13-12-15-6-4-3-5-7-15/h3-11H,12-14H2,1-2H3,(H,22,23)

>  <PUBCHEM_IUPAC_INCHIKEY>  (159) 
MIVHNZPPALTKLQ-UHFFFAOYSA-N

>  <PUBCHEM_IUPAC_NAME>  (159) 
[2-oxo-2-(2-phenylethylamino)ethyl] 2-(4-chlorophenoxy)-2-methylpropanoate

>  <PUBCHEM_IUPAC_OPENEYE_NAME>  (159) 
[2-oxo-2-(2-phenylethylamino)ethyl] 2-(4-chlorophenoxy)-2-methyl-propanoate

>  <PUBCHEM_IUPAC_SYSTEMATIC_NAME>  (159) 
[2-oxidanylidene-2-(2-phenylethylamino)ethyl] 2-(4-chloranylphenoxy)-2-methyl-propanoate

>  <PUBCHEM_IUPAC_TRADITIONAL_NAME>  (159) 
2-(4-chlorophenoxy)-2-methyl-propionic acid [2-keto-2-(phenethylamino)ethyl] ester

>  <PUBCHEM_MOLECULAR_FORMULA>  (159) 
C20H22ClNO4

>  <PUBCHEM_MOLECULAR_WEIGHT>  (159) 
375.84598

>  <PUBCHEM_MONOISOTOPIC_WEIGHT>  (159) 
375.123736

>  <PUBCHEM_OPENEYE_CAN_SMILES>  (159) 
CC(C)(C(=O)OCC(=O)NCCC1=CC=CC=C1)OC2=CC=C(C=C2)Cl

>  <PUBCHEM_OPENEYE_ISO_SMILES>  (159) 
CC(C)(C(=O)OCC(=O)NCCC1=CC=CC=C1)OC2=CC=C(C=C2)Cl

>  <PUBCHEM_TOTAL_CHARGE>  (159) 
0

>  <PUBCHEM_XLOGP3_AA>  (159) 
4.3

$$$$
Largest isolated from Written by BCL::WriteToMDL,2598144
     RDKit          2D

 42 44  0 42  0  0  0  0  0  0999 V2000
    2.2390    1.9212    0.0000 O   0  0  0  0  0  0  0  0  0  0  0  0
   -4.3116   -0.1620    0.0000 N   0  0  0  0  0  0  0  0  0  0  0  0
   -5.0445   -1.4707    0.0000 N   0  0  0  0  0  0  0  0  0  0  0  0
    2.5443   -0.6588    0.0000 N   0  0  0  0  0  0  0  0  0  0  0  0
   -2.8219    0.0143    0.0000 C   0  0  0  0  0  0  0  0  0  0  0  0
   -5.3297    0.9395    0.0000 C   0  0  0  0  0  0  0  0  0  0  0  0
    0.1573    0.3668    0.0000 C   0  0  0  0  0  0  0  0  0  0  0  0
   -6.6920    0.3116    0.0000 C   0  0  0  0  0  0  0  0  0  0  0  0
   -6.5157   -1.1780    0.0000 C   0  0  0  0  0  0  0  0  0  0  0  0
   -1.9245   -1.1876    0.0000 C   0  0  0  0  0  0  0  0  0  0  0  0
   -2.2298    1.3925    0.0000 C   0  0  0  0  0  0  0  0  0  0  0  0
   -0.4349   -1.0114    0.0000 C   0  0  0  0  0  0  0  0  0  0  0  0
   -0.7402    1.5687    0.0000 C   0  0  0  0  0  0  0  0  0  0  0  0
    4.0339   -0.4826    0.0000 C   0  0  0  0  0  0  0  0  0  0  0  0
   -5.0370    2.4107    0.0000 C   0  0  0  0  0  0  0  0  0  0  0  0
    1.6469    0.5431    0.0000 C   0  0  0  0  0  0  0  0  0  0  0  0
    5.5235   -0.3063    0.0000 C   0  0  0  0  0  0  0  0  0  0  0  0
   -7.6172   -2.1962    0.0000 C   0  0  0  0  0  0  0  0  0  0  0  0
    6.4210   -1.5082    0.0000 C   0  0  0  0  0  0  0  0  0  0  0  0
    6.1157    1.0719    0.0000 C   0  0  0  0  0  0  0  0  0  0  0  0
    7.9106   -1.3320    0.0000 C   0  0  0  0  0  0  0  0  0  0  0  0
    7.6053    1.2481    0.0000 C   0  0  0  0  0  0  0  0  0  0  0  0
    8.5028    0.0462    0.0000 C   0  0  0  0  0  0  0  0  0  0  0  0
   -8.0007    1.0446    0.0000 H   0  0  0  0  0  0  0  0  0  0  0  0
   -2.5167   -2.5658    0.0000 H   0  0  0  0  0  0  0  0  0  0  0  0
   -2.8326    2.4474    0.0000 H   0  0  0  0  0  0  0  0  0  0  0  0
    0.4626   -2.2133    0.0000 H   0  0  0  0  0  0  0  0  0  0  0  0
   -0.1480    2.9469    0.0000 H   0  0  0  0  0  0  0  0  0  0  0  0
    3.8577    1.0070    0.0000 H   0  0  0  0  0  0  0  0  0  0  0  0
    4.2102   -1.9722    0.0000 H   0  0  0  0  0  0  0  0  0  0  0  0
   -3.8254    2.3207    0.0000 H   0  0  0  0  0  0  0  0  0  0  0  0
   -6.5082    2.7034    0.0000 H   0  0  0  0  0  0  0  0  0  0  0  0
   -4.7444    3.8819    0.0000 H   0  0  0  0  0  0  0  0  0  0  0  0
    1.9522   -2.0370    0.0000 H   0  0  0  0  0  0  0  0  0  0  0  0
   -6.5990   -3.2977    0.0000 H   0  0  0  0  0  0  0  0  0  0  0  0
   -8.6354   -1.0947    0.0000 H   0  0  0  0  0  0  0  0  0  0  0  0
   -8.7187   -3.2143    0.0000 H   0  0  0  0  0  0  0  0  0  0  0  0
    5.8288   -2.8864    0.0000 H   0  0  0  0  0  0  0  0  0  0  0  0
    5.2183    2.2738    0.0000 H   0  0  0  0  0  0  0  0  0  0  0  0
    8.8081   -2.5339    0.0000 H   0  0  0  0  0  0  0  0  0  0  0  0
    8.1975    2.6263    0.0000 H   0  0  0  0  0  0  0  0  0  0  0  0
    9.9924    0.2225    0.0000 H   0  0  0  0  0  0  0  0  0  0  0  0
  1 16  2  0
  2  3  1  0
  2  5  1  0
  2  6  1  0
  3  9  2  0
  4 14  1  0
  4 16  1  0
  4 34  1  0
  5 10  2  0
  5 11  1  0
  6  8  2  0
  6 15  1  0
  7 12  2  0
  7 13  1  0
  7 16  1  0
  8  9  1  0
  8 24  1  0
  9 18  1  0
 10 12  1  0
 10 25  1  0
 11 13  2  0
 11 26  1  0
 12 27  1  0
 13 28  1  0
 14 17  1  0
 14 29  1  0
 14 30  1  0
 15 31  1  0
 15 32  1  0
 15 33  1  0
 17 19  2  0
 17 20  1  0
 18 35  1  0
 18 36  1  0
 18 37  1  0
 19 21  1  0
 19 38  1  0
 20 22  2  0
 20 39  1  0
 21 23  2  0
 21 40  1  0
 22 23  1  0
 22 41  1  0
 23 42  1  0
M  STY  8   1 DAT   2 DAT   3 DAT   4 DAT   5 DAT   6 DAT   7 DAT   8 DAT
M  STY  8   9 DAT  10 DAT  11 DAT  12 DAT  13 DAT  14 DAT  15 DAT  16 DAT
M  STY  8  17 DAT  18 DAT  19 DAT  20 DAT  21 DAT  22 DAT  23 DAT  24 DAT
M  STY  8  25 DAT  26 DAT  27 DAT  28 DAT  29 DAT  30 DAT  31 DAT  32 DAT
M  STY  8  33 DAT  34 DAT  35 DAT  36 DAT  37 DAT  38 DAT  39 DAT  40 DAT
M  STY  2  41 DAT  42 DAT
M  SAL   1  1   1
M  SED   1 [#8&h0]
M  SAL   2  1   2
M  SED   2 [#7&h0]
M  SAL   3  1   3
M  SED   3 [#7&h0]
M  SAL   4  1   4
M  SED   4 [#7&h0]
M  SAL   5  1   5
M  SED   5 [#6&h0]
M  SAL   6  1   6
M  SED   6 [#6&h0]
M  SAL   7  1   7
M  SED   7 [#6&h0]
M  SAL   8  1   8
M  SED   8 [#6&h0]
M  SAL   9  1   9
M  SED   9 [#6&h0]
M  SAL  10  1  10
M  SED  10 [#6&h0]
M  SAL  11  1  11
M  SED  11 [#6&h0]
M  SAL  12  1  12
M  SED  12 [#6&h0]
M  SAL  13  1  13
M  SED  13 [#6&h0]
M  SAL  14  1  14
M  SED  14 [#6&h0]
M  SAL  15  1  15
M  SED  15 [#6&h0]
M  SAL  16  1  16
M  SED  16 [#6&h0]
M  SAL  17  1  17
M  SED  17 [#6&h0]
M  SAL  18  1  18
M  SED  18 [#6&h0]
M  SAL  19  1  19
M  SED  19 [#6&h0]
M  SAL  20  1  20
M  SED  20 [#6&h0]
M  SAL  21  1  21
M  SED  21 [#6&h0]
M  SAL  22  1  22
M  SED  22 [#6&h0]
M  SAL  23  1  23
M  SED  23 [#6&h0]
M  SAL  24  1  24
M  SED  24 [#1&h0]
M  SAL  25  1  25
M  SED  25 [#1&h0]
M  SAL  26  1  26
M  SED  26 [#1&h0]
M  SAL  27  1  27
M  SED  27 [#1&h0]
M  SAL  28  1  28
M  SED  28 [#1&h0]
M  SAL  29  1  29
M  SED  29 [#1&h0]
M  SAL  30  1  30
M  SED  30 [#1&h0]
M  SAL  31  1  31
M  SED  31 [#1&h0]
M  SAL  32  1  32
M  SED  32 [#1&h0]
M  SAL  33  1  33
M  SED  33 [#1&h0]
M  SAL  34  1  34
M  SED  34 [#1&h0]
M  SAL  35  1  35
M  SED  35 [#1&h0]
M  SAL  36  1  36
M  SED  36 [#1&h0]
M  SAL  37  1  37
M  SED  37 [#1&h0]
M  SAL  38  1  38
M  SED  38 [#1&h0]
M  SAL  39  1  39
M  SED  39 [#1&h0]
M  SAL  40  1  40
M  SED  40 [#1&h0]
M  SAL  41  1  41
M  SED  41 [#1&h0]
M  SAL  42  1  42
M  SED  42 [#1&h0]
M  END
>  <Activity>  (160) 
0.01

>  <Mapped(file=2032.csv.activities,property=Cached(PUBCHEM_COMPOUND_CID))>  (160) 
100

>  <MatchIndices>  (160) 
16 

>  <PUBCHEM_ATOM_DEF_STEREO_COUNT>  (160) 
0

>  <PUBCHEM_ATOM_UDEF_STEREO_COUNT>  (160) 
0

>  <PUBCHEM_BONDANNOTATIONS>  (160) 
10  12  8
11  13  8
17  19  8
17  20  8
19  21  8
2  3  8
2  6  8
20  22  8
21  23  8
22  23  8
3  9  8
5  10  8
5  11  8
6  8  8
7  12  8
7  13  8
8  9  8

>  <PUBCHEM_BOND_DEF_STEREO_COUNT>  (160) 
0

>  <PUBCHEM_BOND_UDEF_STEREO_COUNT>  (160) 
0

>  <PUBCHEM_CACTVS_COMPLEXITY>  (160) 
386

>  <PUBCHEM_CACTVS_HBOND_ACCEPTOR>  (160) 
2

>  <PUBCHEM_CACTVS_HBOND_DONOR>  (160) 
1

>  <PUBCHEM_CACTVS_ROTATABLE_BOND>  (160) 
4

>  <PUBCHEM_CACTVS_SUBSKEYS>  (160) 
AAADceB7IAAAAAAAAAAAAAAAAAAAAWAAAAAwYAAAAAAAAAAB0AAAHgAYAAAADAjBngQywJLIAACqAyVyVACSBCAlAgAYmKE4ZNgIIHLA1dGEpQhgjgDIyYcYiQCeCAAAAAAAAAAQAAAAAAAAAAAAAAAAAA==

>  <PUBCHEM_CACTVS_TAUTO_COUNT>  (160) 
2

>  <PUBCHEM_CACTVS_TPSA>  (160) 
46.9

>  <PUBCHEM_COMPONENT_COUNT>  (160) 
1

>  <PUBCHEM_COMPOUND_CANONICALIZED>  (160) 
1

>  <PUBCHEM_COMPOUND_CID>  (160) 
2598144

>  <PUBCHEM_COORDINATE_TYPE>  (160) 
1
5
255

>  <PUBCHEM_EXACT_MASS>  (160) 
305.152812

>  <PUBCHEM_HEAVY_ATOM_COUNT>  (160) 
23

>  <PUBCHEM_ISOTOPIC_ATOM_COUNT>  (160) 
0

>  <PUBCHEM_IUPAC_CAS_NAME>  (160) 
4-(3,5-dimethyl-1-pyrazolyl)-N-(phenylmethyl)benzamide

>  <PUBCHEM_IUPAC_INCHI>  (160) 
InChI=1S/C19H19N3O/c1-14-12-15(2)22(21-14)18-10-8-17(9-11-18)19(23)20-13-16-6-4-3-5-7-16/h3-12H,13H2,1-2H3,(H,20,23)

>  <PUBCHEM_IUPAC_INCHIKEY>  (160) 
VQBNQZQADKAYEJ-UHFFFAOYSA-N

>  <PUBCHEM_IUPAC_NAME>  (160) 
N-benzyl-4-(3,5-dimethylpyrazol-1-yl)benzamide

>  <PUBCHEM_IUPAC_OPENEYE_NAME>  (160) 
N-benzyl-4-(3,5-dimethylpyrazol-1-yl)benzamide

>  <PUBCHEM_IUPAC_SYSTEMATIC_NAME>  (160) 
4-(3,5-dimethylpyrazol-1-yl)-N-(phenylmethyl)benzamide

>  <PUBCHEM_IUPAC_TRADITIONAL_NAME>  (160) 
N-benzyl-4-(3,5-dimethylpyrazol-1-yl)benzamide

>  <PUBCHEM_MOLECULAR_FORMULA>  (160) 
C19H19N3O

>  <PUBCHEM_MOLECULAR_WEIGHT>  (160) 
305.37366

>  <PUBCHEM_MONOISOTOPIC_WEIGHT>  (160) 
305.152812

>  <PUBCHEM_OPENEYE_CAN_SMILES>  (160) 
CC1=CC(=NN1C2=CC=C(C=C2)C(=O)NCC3=CC=CC=C3)C

>  <PUBCHEM_OPENEYE_ISO_SMILES>  (160) 
CC1=CC(=NN1C2=CC=C(C=C2)C(=O)NCC3=CC=CC=C3)C

>  <PUBCHEM_TOTAL_CHARGE>  (160) 
0

>  <PUBCHEM_XLOGP3_AA>  (160) 
3.5

$$$$
Largest isolated from Written by BCL::WriteToMDL,9551932
     RDKit          2D

 36 38  0 36  0  0  0  0  0  0999 V2000
    0.3836   -0.5389    0.0000 S   0  0  0  0  0  0  0  0  0  0  0  0
   -2.9559   -0.9944    0.0000 O   0  0  0  0  0  0  0  0  0  0  0  0
    4.3140    1.4730    0.0000 N   0  0  0  0  0  0  0  0  0  0  0  0
   -0.1447    0.8650    0.0000 C   0  0  0  0  0  0  0  0  0  0  0  0
    1.3415    1.0676    0.0000 C   0  0  0  0  0  0  0  0  0  0  0  0
   -1.5717    1.3272    0.0000 C   0  0  0  0  0  0  0  0  0  0  0  0
    2.8278    1.2703    0.0000 C   0  0  0  0  0  0  0  0  0  0  0  0
   -2.8228    0.4997    0.0000 C   0  0  0  0  0  0  0  0  0  0  0  0
   -0.3846   -1.8273    0.0000 C   0  0  0  0  0  0  0  0  0  0  0  0
   -1.6628    2.8244    0.0000 C   0  0  0  0  0  0  0  0  0  0  0  0
   -1.8708   -2.0300    0.0000 C   0  0  0  0  0  0  0  0  0  0  0  0
   -4.1650    1.1695    0.0000 C   0  0  0  0  0  0  0  0  0  0  0  0
   -3.0049    3.4942    0.0000 C   0  0  0  0  0  0  0  0  0  0  0  0
   -4.2560    2.6667    0.0000 C   0  0  0  0  0  0  0  0  0  0  0  0
    0.5341   -3.0131    0.0000 C   0  0  0  0  0  0  0  0  0  0  0  0
   -2.4384   -3.4184    0.0000 C   0  0  0  0  0  0  0  0  0  0  0  0
    5.2327    0.2872    0.0000 C   0  0  0  0  0  0  0  0  0  0  0  0
   -0.0335   -4.4015    0.0000 C   0  0  0  0  0  0  0  0  0  0  0  0
   -1.5197   -4.6042    0.0000 C   0  0  0  0  0  0  0  0  0  0  0  0
   -0.0116    2.3590    0.0000 H   0  0  0  0  0  0  0  0  0  0  0  0
    1.1389    2.5539    0.0000 H   0  0  0  0  0  0  0  0  0  0  0  0
    1.5442   -0.4186    0.0000 H   0  0  0  0  0  0  0  0  0  0  0  0
    2.6251    2.7566    0.0000 H   0  0  0  0  0  0  0  0  0  0  0  0
    3.0305   -0.2159    0.0000 H   0  0  0  0  0  0  0  0  0  0  0  0
   -0.4116    3.6519    0.0000 H   0  0  0  0  0  0  0  0  0  0  0  0
   -5.4161    0.3420    0.0000 H   0  0  0  0  0  0  0  0  0  0  0  0
    4.8816    2.8615    0.0000 H   0  0  0  0  0  0  0  0  0  0  0  0
   -3.0960    4.9914    0.0000 H   0  0  0  0  0  0  0  0  0  0  0  0
   -5.5982    3.3365    0.0000 H   0  0  0  0  0  0  0  0  0  0  0  0
    2.0203   -2.8104    0.0000 H   0  0  0  0  0  0  0  0  0  0  0  0
   -3.9246   -3.6211    0.0000 H   0  0  0  0  0  0  0  0  0  0  0  0
    6.4185    1.2059    0.0000 H   0  0  0  0  0  0  0  0  0  0  0  0
    4.0469   -0.6314    0.0000 H   0  0  0  0  0  0  0  0  0  0  0  0
    6.1513   -0.8985    0.0000 H   0  0  0  0  0  0  0  0  0  0  0  0
    0.8852   -5.5873    0.0000 H   0  0  0  0  0  0  0  0  0  0  0  0
   -2.0873   -5.9927    0.0000 H   0  0  0  0  0  0  0  0  0  0  0  0
  1  4  1  0
  1  9  1  0
  2  8  1  0
  2 11  1  0
  3  7  1  0
  3 17  1  0
  3 27  1  0
  4  5  1  0
  4  6  1  0
  4 20  1  1
  5  7  1  0
  5 21  1  0
  5 22  1  0
  6  8  2  0
  6 10  1  0
  7 23  1  0
  7 24  1  0
  8 12  1  0
  9 11  2  0
  9 15  1  0
 10 13  2  0
 10 25  1  0
 11 16  1  0
 12 14  2  0
 12 26  1  0
 13 14  1  0
 13 28  1  0
 14 29  1  0
 15 18  2  0
 15 30  1  0
 16 19  2  0
 16 31  1  0
 17 32  1  0
 17 33  1  0
 17 34  1  0
 18 19  1  0
 18 35  1  0
 19 36  1  0
M  STY  8   1 DAT   2 DAT   3 DAT   4 DAT   5 DAT   6 DAT   7 DAT   8 DAT
M  STY  8   9 DAT  10 DAT  11 DAT  12 DAT  13 DAT  14 DAT  15 DAT  16 DAT
M  STY  8  17 DAT  18 DAT  19 DAT  20 DAT  21 DAT  22 DAT  23 DAT  24 DAT
M  STY  8  25 DAT  26 DAT  27 DAT  28 DAT  29 DAT  30 DAT  31 DAT  32 DAT
M  STY  4  33 DAT  34 DAT  35 DAT  36 DAT
M  SAL   1  1   1
M  SED   1 [#16&h0]
M  SAL   2  1   2
M  SED   2 [#8&h0]
M  SAL   3  1   3
M  SED   3 [#7&h0]
M  SAL   4  1   4
M  SED   4 [#6&h0]
M  SAL   5  1   5
M  SED   5 [#6&h0]
M  SAL   6  1   6
M  SED   6 [#6&h0]
M  SAL   7  1   7
M  SED   7 [#6&h0]
M  SAL   8  1   8
M  SED   8 [#6&h0]
M  SAL   9  1   9
M  SED   9 [#6&h0]
M  SAL  10  1  10
M  SED  10 [#6&h0]
M  SAL  11  1  11
M  SED  11 [#6&h0]
M  SAL  12  1  12
M  SED  12 [#6&h0]
M  SAL  13  1  13
M  SED  13 [#6&h0]
M  SAL  14  1  14
M  SED  14 [#6&h0]
M  SAL  15  1  15
M  SED  15 [#6&h0]
M  SAL  16  1  16
M  SED  16 [#6&h0]
M  SAL  17  1  17
M  SED  17 [#6&h0]
M  SAL  18  1  18
M  SED  18 [#6&h0]
M  SAL  19  1  19
M  SED  19 [#6&h0]
M  SAL  20  1  20
M  SED  20 [#1&h0]
M  SAL  21  1  21
M  SED  21 [#1&h0]
M  SAL  22  1  22
M  SED  22 [#1&h0]
M  SAL  23  1  23
M  SED  23 [#1&h0]
M  SAL  24  1  24
M  SED  24 [#1&h0]
M  SAL  25  1  25
M  SED  25 [#1&h0]
M  SAL  26  1  26
M  SED  26 [#1&h0]
M  SAL  27  1  27
M  SED  27 [#1&h0]
M  SAL  28  1  28
M  SED  28 [#1&h0]
M  SAL  29  1  29
M  SED  29 [#1&h0]
M  SAL  30  1  30
M  SED  30 [#1&h0]
M  SAL  31  1  31
M  SED  31 [#1&h0]
M  SAL  32  1  32
M  SED  32 [#1&h0]
M  SAL  33  1  33
M  SED  33 [#1&h0]
M  SAL  34  1  34
M  SED  34 [#1&h0]
M  SAL  35  1  35
M  SED  35 [#1&h0]
M  SAL  36  1  36
M  SED  36 [#1&h0]
M  END
>  <Activity>  (161) 
0.01

>  <Mapped(file=2032.csv.activities,property=Cached(PUBCHEM_COMPOUND_CID))>  (161) 
100

>  <MatchIndices>  (161) 
222 

>  <PUBCHEM_ATOM_DEF_STEREO_COUNT>  (161) 
0

>  <PUBCHEM_ATOM_UDEF_STEREO_COUNT>  (161) 
1

>  <PUBCHEM_BONDANNOTATIONS>  (161) 
10  12  8
10  14  8
12  16  8
13  15  8
13  19  8
14  17  8
15  20  8
16  18  8
17  18  8
19  22  8
20  23  8
22  23  8
8  9  3

>  <PUBCHEM_BOND_DEF_STEREO_COUNT>  (161) 
0

>  <PUBCHEM_BOND_UDEF_STEREO_COUNT>  (161) 
0

>  <PUBCHEM_CACTVS_COMPLEXITY>  (161) 
358

>  <PUBCHEM_CACTVS_HBOND_ACCEPTOR>  (161) 
7

>  <PUBCHEM_CACTVS_HBOND_DONOR>  (161) 
3

>  <PUBCHEM_CACTVS_ROTATABLE_BOND>  (161) 
4

>  <PUBCHEM_CACTVS_SUBSKEYS>  (161) 
AAADceB6OABAAAAAAAAAAAAAAAAAAAAAAAAwYAAABIAAAAABQAAAHgQQCAAADATF2ASyD4LABgiIAiDSCAICCAAgKBAIiJpOCIgNJiKksRqGOCCk0BEpqAeQ0KIOAAAAAAAIIAAAAAAAABBAAAAAAAAAAA==

>  <PUBCHEM_CACTVS_TAUTO_COUNT>  (161) 
1

>  <PUBCHEM_CACTVS_TPSA>  (161) 
121

>  <PUBCHEM_COMPONENT_COUNT>  (161) 
2

>  <PUBCHEM_COMPOUND_CANONICALIZED>  (161) 
1

>  <PUBCHEM_COMPOUND_CID>  (161) 
9551932

>  <PUBCHEM_COORDINATE_TYPE>  (161) 
1
5
255

>  <PUBCHEM_EXACT_MASS>  (161) 
361.098394

>  <PUBCHEM_HEAVY_ATOM_COUNT>  (161) 
25

>  <PUBCHEM_ISOTOPIC_ATOM_COUNT>  (161) 
0

>  <PUBCHEM_IUPAC_CAS_NAME>  (161) 
2-(6H-benzo[b][1,5]benzoxathiepin-6-yl)-N-methylethanamine; oxalic acid

>  <PUBCHEM_IUPAC_INCHI>  (161) 
InChI=1S/C16H17NOS.C2H2O4/c1-17-11-10-15-12-6-2-3-7-13(12)18-14-8-4-5-9-16(14)19-15;3-1(4)2(5)6/h2-9,15,17H,10-11H2,1H3;(H,3,4)(H,5,6)

>  <PUBCHEM_IUPAC_INCHIKEY>  (161) 
JEILQYZJCYDQNO-UHFFFAOYSA-N

>  <PUBCHEM_IUPAC_NAME>  (161) 
2-(6H-benzo[b][1,5]benzoxathiepin-6-yl)-N-methylethanamine; oxalic acid

>  <PUBCHEM_IUPAC_OPENEYE_NAME>  (161) 
2-(6H-benzo[b][1,5]benzoxathiepin-6-yl)-N-methyl-ethanamine; oxalic acid

>  <PUBCHEM_IUPAC_SYSTEMATIC_NAME>  (161) 
2-(6H-benzo[b][1,5]benzoxathiepin-6-yl)-N-methyl-ethanamine; ethanedioic acid

>  <PUBCHEM_IUPAC_TRADITIONAL_NAME>  (161) 
2-(6H-benzo[b][1,5]benzoxathiepin-6-yl)ethyl-methyl-amine; oxalic acid

>  <PUBCHEM_MOLECULAR_FORMULA>  (161) 
C18H19NO5S

>  <PUBCHEM_MOLECULAR_WEIGHT>  (161) 
361.41216

>  <PUBCHEM_MONOISOTOPIC_WEIGHT>  (161) 
361.098394

>  <PUBCHEM_OPENEYE_CAN_SMILES>  (161) 
CNCCC1C2=CC=CC=C2OC3=CC=CC=C3S1.C(=O)(C(=O)O)O

>  <PUBCHEM_OPENEYE_ISO_SMILES>  (161) 
CNCCC1C2=CC=CC=C2OC3=CC=CC=C3S1.C(=O)(C(=O)O)O

>  <PUBCHEM_TOTAL_CHARGE>  (161) 
0

$$$$
Largest isolated from Written by BCL::WriteToMDL,2954747
     RDKit          2D

 41 42  0 41  0  0  0  0  0  0999 V2000
   -7.6979    2.1891    0.0000 Cl  0  0  0  0  0  0  0  0  0  0  0  0
    0.7471   -2.8539    0.0000 S   0  0  0  0  0  0  0  0  0  0  0  0
    6.3270   -0.6484    0.0000 O   0  0  0  0  0  0  0  0  0  0  0  0
   -0.2079   -0.4378    0.0000 N   0  0  0  0  0  0  0  0  0  0  0  0
   -1.8229   -2.4729    0.0000 N   0  0  0  0  0  0  0  0  0  0  0  0
    1.1871    0.1136    0.0000 C   0  0  0  0  0  0  0  0  0  0  0  0
    2.5821    0.6650    0.0000 C   0  0  0  0  0  0  0  0  0  0  0  0
    0.6357    1.5086    0.0000 C   0  0  0  0  0  0  0  0  0  0  0  0
    3.7571   -0.2674    0.0000 C   0  0  0  0  0  0  0  0  0  0  0  0
    2.8020    2.1488    0.0000 C   0  0  0  0  0  0  0  0  0  0  0  0
   -0.4279   -1.9215    0.0000 C   0  0  0  0  0  0  0  0  0  0  0  0
   -2.9979   -1.5405    0.0000 C   0  0  0  0  0  0  0  0  0  0  0  0
    5.1520    0.2840    0.0000 C   0  0  0  0  0  0  0  0  0  0  0  0
   -4.1729   -0.6081    0.0000 C   0  0  0  0  0  0  0  0  0  0  0  0
    4.1970    2.7002    0.0000 C   0  0  0  0  0  0  0  0  0  0  0  0
    5.3720    1.7678    0.0000 C   0  0  0  0  0  0  0  0  0  0  0  0
   -5.5679   -1.1595    0.0000 C   0  0  0  0  0  0  0  0  0  0  0  0
   -3.9529    0.8756    0.0000 C   0  0  0  0  0  0  0  0  0  0  0  0
   -6.7429   -0.2271    0.0000 C   0  0  0  0  0  0  0  0  0  0  0  0
   -5.1279    1.8080    0.0000 C   0  0  0  0  0  0  0  0  0  0  0  0
   -6.5229    1.2567    0.0000 C   0  0  0  0  0  0  0  0  0  0  0  0
    6.1071   -2.1322    0.0000 C   0  0  0  0  0  0  0  0  0  0  0  0
    1.7385   -1.2814    0.0000 H   0  0  0  0  0  0  0  0  0  0  0  0
   -1.4878    0.3445    0.0000 H   0  0  0  0  0  0  0  0  0  0  0  0
    1.3562    2.0238    0.0000 H   0  0  0  0  0  0  0  0  0  0  0  0
   -0.8161    1.1314    0.0000 H   0  0  0  0  0  0  0  0  0  0  0  0
    0.0843    2.9036    0.0000 H   0  0  0  0  0  0  0  0  0  0  0  0
    3.5371   -1.7512    0.0000 H   0  0  0  0  0  0  0  0  0  0  0  0
    2.1082    2.6994    0.0000 H   0  0  0  0  0  0  0  0  0  0  0  0
   -3.9303   -2.7155    0.0000 H   0  0  0  0  0  0  0  0  0  0  0  0
   -2.0655   -0.3655    0.0000 H   0  0  0  0  0  0  0  0  0  0  0  0
   -2.0428   -3.9567    0.0000 H   0  0  0  0  0  0  0  0  0  0  0  0
    4.4170    4.1840    0.0000 H   0  0  0  0  0  0  0  0  0  0  0  0
    6.7670    2.3192    0.0000 H   0  0  0  0  0  0  0  0  0  0  0  0
   -5.7878   -2.6433    0.0000 H   0  0  0  0  0  0  0  0  0  0  0  0
   -2.5579    1.4270    0.0000 H   0  0  0  0  0  0  0  0  0  0  0  0
   -8.1378   -0.7785    0.0000 H   0  0  0  0  0  0  0  0  0  0  0  0
   -4.9079    3.2918    0.0000 H   0  0  0  0  0  0  0  0  0  0  0  0
    7.5909   -2.3522    0.0000 H   0  0  0  0  0  0  0  0  0  0  0  0
    4.6233   -1.9122    0.0000 H   0  0  0  0  0  0  0  0  0  0  0  0
    5.8871   -3.6160    0.0000 H   0  0  0  0  0  0  0  0  0  0  0  0
  1 21  1  0
  2 11  2  0
  3 13  1  0
  3 22  1  0
  4  6  1  0
  4 11  1  0
  4 24  1  0
  5 11  1  0
  5 12  1  0
  5 32  1  0
  6  7  1  0
  6  8  1  0
  6 23  1  1
  7  9  2  0
  7 10  1  0
  8 25  1  0
  8 26  1  0
  8 27  1  0
  9 13  1  0
  9 28  1  0
 10 15  2  0
 10 29  1  0
 12 14  1  0
 12 30  1  0
 12 31  1  0
 13 16  2  0
 14 17  2  0
 14 18  1  0
 15 16  1  0
 15 33  1  0
 16 34  1  0
 17 19  1  0
 17 35  1  0
 18 20  2  0
 18 36  1  0
 19 21  2  0
 19 37  1  0
 20 21  1  0
 20 38  1  0
 22 39  1  0
 22 40  1  0
 22 41  1  0
M  STY  8   1 DAT   2 DAT   3 DAT   4 DAT   5 DAT   6 DAT   7 DAT   8 DAT
M  STY  8   9 DAT  10 DAT  11 DAT  12 DAT  13 DAT  14 DAT  15 DAT  16 DAT
M  STY  8  17 DAT  18 DAT  19 DAT  20 DAT  21 DAT  22 DAT  23 DAT  24 DAT
M  STY  8  25 DAT  26 DAT  27 DAT  28 DAT  29 DAT  30 DAT  31 DAT  32 DAT
M  STY  8  33 DAT  34 DAT  35 DAT  36 DAT  37 DAT  38 DAT  39 DAT  40 DAT
M  STY  1  41 DAT
M  SAL   1  1   1
M  SED   1 [#17&h0]
M  SAL   2  1   2
M  SED   2 [#16&h0]
M  SAL   3  1   3
M  SED   3 [#8&h0]
M  SAL   4  1   4
M  SED   4 [#7&h0]
M  SAL   5  1   5
M  SED   5 [#7&h0]
M  SAL   6  1   6
M  SED   6 [#6&h0]
M  SAL   7  1   7
M  SED   7 [#6&h0]
M  SAL   8  1   8
M  SED   8 [#6&h0]
M  SAL   9  1   9
M  SED   9 [#6&h0]
M  SAL  10  1  10
M  SED  10 [#6&h0]
M  SAL  11  1  11
M  SED  11 [#6&h0]
M  SAL  12  1  12
M  SED  12 [#6&h0]
M  SAL  13  1  13
M  SED  13 [#6&h0]
M  SAL  14  1  14
M  SED  14 [#6&h0]
M  SAL  15  1  15
M  SED  15 [#6&h0]
M  SAL  16  1  16
M  SED  16 [#6&h0]
M  SAL  17  1  17
M  SED  17 [#6&h0]
M  SAL  18  1  18
M  SED  18 [#6&h0]
M  SAL  19  1  19
M  SED  19 [#6&h0]
M  SAL  20  1  20
M  SED  20 [#6&h0]
M  SAL  21  1  21
M  SED  21 [#6&h0]
M  SAL  22  1  22
M  SED  22 [#6&h0]
M  SAL  23  1  23
M  SED  23 [#1&h0]
M  SAL  24  1  24
M  SED  24 [#1&h0]
M  SAL  25  1  25
M  SED  25 [#1&h0]
M  SAL  26  1  26
M  SED  26 [#1&h0]
M  SAL  27  1  27
M  SED  27 [#1&h0]
M  SAL  28  1  28
M  SED  28 [#1&h0]
M  SAL  29  1  29
M  SED  29 [#1&h0]
M  SAL  30  1  30
M  SED  30 [#1&h0]
M  SAL  31  1  31
M  SED  31 [#1&h0]
M  SAL  32  1  32
M  SED  32 [#1&h0]
M  SAL  33  1  33
M  SED  33 [#1&h0]
M  SAL  34  1  34
M  SED  34 [#1&h0]
M  SAL  35  1  35
M  SED  35 [#1&h0]
M  SAL  36  1  36
M  SED  36 [#1&h0]
M  SAL  37  1  37
M  SED  37 [#1&h0]
M  SAL  38  1  38
M  SED  38 [#1&h0]
M  SAL  39  1  39
M  SED  39 [#1&h0]
M  SAL  40  1  40
M  SED  40 [#1&h0]
M  SAL  41  1  41
M  SED  41 [#1&h0]
M  END
>  <Activity>  (162) 
0.01

>  <Mapped(file=2032.csv.activities,property=Cached(PUBCHEM_COMPOUND_CID))>  (162) 
100

>  <MatchIndices>  (162) 
118 

>  <PUBCHEM_ATOM_DEF_STEREO_COUNT>  (162) 
0

>  <PUBCHEM_ATOM_UDEF_STEREO_COUNT>  (162) 
1

>  <PUBCHEM_BONDANNOTATIONS>  (162) 
10  15  8
13  16  8
14  17  8
14  18  8
15  16  8
17  19  8
18  20  8
19  21  8
20  21  8
6  23  3
7  10  8
7  9  8
9  13  8

>  <PUBCHEM_BOND_DEF_STEREO_COUNT>  (162) 
0

>  <PUBCHEM_BOND_UDEF_STEREO_COUNT>  (162) 
0

>  <PUBCHEM_CACTVS_COMPLEXITY>  (162) 
348

>  <PUBCHEM_CACTVS_HBOND_ACCEPTOR>  (162) 
2

>  <PUBCHEM_CACTVS_HBOND_DONOR>  (162) 
2

>  <PUBCHEM_CACTVS_ROTATABLE_BOND>  (162) 
5

>  <PUBCHEM_CACTVS_SUBSKEYS>  (162) 
AAADceB7IABEAAAAAAAAAAAAAAAAAAAAAAAwYAAAAAAAAAABQAAAHgYQAAAADC7BmCYzBoLABACEAiBCAACCCAAgJQkIiIAODoiMJiKFsxuEMChs0BMIqAewwLAOBAABAAAAAAAIAAIAAAAAAAAAAAAAAA==

>  <PUBCHEM_CACTVS_TAUTO_COUNT>  (162) 
3

>  <PUBCHEM_CACTVS_TPSA>  (162) 
65.4

>  <PUBCHEM_COMPONENT_COUNT>  (162) 
1

>  <PUBCHEM_COMPOUND_CANONICALIZED>  (162) 
1

>  <PUBCHEM_COMPOUND_CID>  (162) 
2954747

>  <PUBCHEM_COORDINATE_TYPE>  (162) 
1
5
255

>  <PUBCHEM_EXACT_MASS>  (162) 
334.090662

>  <PUBCHEM_HEAVY_ATOM_COUNT>  (162) 
22

>  <PUBCHEM_ISOTOPIC_ATOM_COUNT>  (162) 
0

>  <PUBCHEM_IUPAC_CAS_NAME>  (162) 
1-[(4-chlorophenyl)methyl]-3-[1-(3-methoxyphenyl)ethyl]thiourea

>  <PUBCHEM_IUPAC_INCHI>  (162) 
InChI=1S/C17H19ClN2OS/c1-12(14-4-3-5-16(10-14)21-2)20-17(22)19-11-13-6-8-15(18)9-7-13/h3-10,12H,11H2,1-2H3,(H2,19,20,22)

>  <PUBCHEM_IUPAC_INCHIKEY>  (162) 
QTYNOGHLGAXYIX-UHFFFAOYSA-N

>  <PUBCHEM_IUPAC_NAME>  (162) 
1-[(4-chlorophenyl)methyl]-3-[1-(3-methoxyphenyl)ethyl]thiourea

>  <PUBCHEM_IUPAC_OPENEYE_NAME>  (162) 
1-[(4-chlorophenyl)methyl]-3-[1-(3-methoxyphenyl)ethyl]thiourea

>  <PUBCHEM_IUPAC_SYSTEMATIC_NAME>  (162) 
1-[(4-chlorophenyl)methyl]-3-[1-(3-methoxyphenyl)ethyl]thiourea

>  <PUBCHEM_IUPAC_TRADITIONAL_NAME>  (162) 
1-(4-chlorobenzyl)-3-[1-(3-methoxyphenyl)ethyl]thiourea

>  <PUBCHEM_MOLECULAR_FORMULA>  (162) 
C17H19ClN2OS

>  <PUBCHEM_MOLECULAR_WEIGHT>  (162) 
334.86356

>  <PUBCHEM_MONOISOTOPIC_WEIGHT>  (162) 
334.090662

>  <PUBCHEM_OPENEYE_CAN_SMILES>  (162) 
CC(C1=CC(=CC=C1)OC)NC(=S)NCC2=CC=C(C=C2)Cl

>  <PUBCHEM_OPENEYE_ISO_SMILES>  (162) 
CC(C1=CC(=CC=C1)OC)NC(=S)NCC2=CC=C(C=C2)Cl

>  <PUBCHEM_TOTAL_CHARGE>  (162) 
0

>  <PUBCHEM_XLOGP3_AA>  (162) 
4

$$$$
Largest isolated from Written by BCL::WriteToMDL,2923756
     RDKit          2D

 37 37  0 37  0  0  0  0  0  0999 V2000
    1.5508    0.5641    0.0000 Br  0  0  0  0  0  0  0  0  0  0  0  0
    5.4893   -2.8253    0.0000 Cl  0  0  0  0  0  0  0  0  0  0  0  0
    2.5417   -2.2675    0.0000 O   0  0  0  0  0  0  0  0  0  0  0  0
   -4.8276   -0.8731    0.0000 N   0  0  0  0  0  0  0  0  0  0  0  0
   -1.8799   -1.4309    0.0000 C   0  0  0  0  0  0  0  0  0  0  0  0
   -0.4060   -1.7098    0.0000 C   0  0  0  0  0  0  0  0  0  0  0  0
   -3.3537   -1.1520    0.0000 C   0  0  0  0  0  0  0  0  0  0  0  0
    1.0678   -1.9887    0.0000 C   0  0  0  0  0  0  0  0  0  0  0  0
   -5.3230    0.5427    0.0000 C   0  0  0  0  0  0  0  0  0  0  0  0
    3.5201   -1.1306    0.0000 C   0  0  0  0  0  0  0  0  0  0  0  0
    3.0247    0.2852    0.0000 C   0  0  0  0  0  0  0  0  0  0  0  0
    4.9939   -1.4095    0.0000 C   0  0  0  0  0  0  0  0  0  0  0  0
    5.4770    1.1433    0.0000 C   0  0  0  0  0  0  0  0  0  0  0  0
    4.0031    1.4222    0.0000 C   0  0  0  0  0  0  0  0  0  0  0  0
    5.9724   -0.2725    0.0000 C   0  0  0  0  0  0  0  0  0  0  0  0
   -5.8184    1.9585    0.0000 C   0  0  0  0  0  0  0  0  0  0  0  0
    6.4554    2.2803    0.0000 C   0  0  0  0  0  0  0  0  0  0  0  0
   -7.2922    2.2374    0.0000 C   0  0  0  0  0  0  0  0  0  0  0  0
   -1.6010    0.0430    0.0000 H   0  0  0  0  0  0  0  0  0  0  0  0
   -2.1588   -2.9047    0.0000 H   0  0  0  0  0  0  0  0  0  0  0  0
   -0.1272   -0.2359    0.0000 H   0  0  0  0  0  0  0  0  0  0  0  0
   -0.6849   -3.1836    0.0000 H   0  0  0  0  0  0  0  0  0  0  0  0
   -3.6326   -2.6259    0.0000 H   0  0  0  0  0  0  0  0  0  0  0  0
   -3.0749    0.3218    0.0000 H   0  0  0  0  0  0  0  0  0  0  0  0
    0.7889   -3.4625    0.0000 H   0  0  0  0  0  0  0  0  0  0  0  0
    1.3467   -0.5148    0.0000 H   0  0  0  0  0  0  0  0  0  0  0  0
   -5.8060   -2.0101    0.0000 H   0  0  0  0  0  0  0  0  0  0  0  0
   -6.7388    0.0473    0.0000 H   0  0  0  0  0  0  0  0  0  0  0  0
   -3.9072    1.0381    0.0000 H   0  0  0  0  0  0  0  0  0  0  0  0
    3.5077    2.8380    0.0000 H   0  0  0  0  0  0  0  0  0  0  0  0
    7.4462   -0.5514    0.0000 H   0  0  0  0  0  0  0  0  0  0  0  0
   -4.8400    3.0955    0.0000 H   0  0  0  0  0  0  0  0  0  0  0  0
    7.5924    1.3018    0.0000 H   0  0  0  0  0  0  0  0  0  0  0  0
    5.3185    3.2587    0.0000 H   0  0  0  0  0  0  0  0  0  0  0  0
    7.4339    3.4172    0.0000 H   0  0  0  0  0  0  0  0  0  0  0  0
   -7.7876    3.6532    0.0000 H   0  0  0  0  0  0  0  0  0  0  0  0
   -8.2707    1.1005    0.0000 H   0  0  0  0  0  0  0  0  0  0  0  0
  1 11  1  0
  2 12  1  0
  3  8  1  0
  3 10  1  0
  4  7  1  0
  4  9  1  0
  4 27  1  0
  5  6  1  0
  5  7  1  0
  5 19  1  0
  5 20  1  0
  6  8  1  0
  6 21  1  0
  6 22  1  0
  7 23  1  0
  7 24  1  0
  8 25  1  0
  8 26  1  0
  9 16  1  0
  9 28  1  0
  9 29  1  0
 10 11  2  0
 10 12  1  0
 11 14  1  0
 12 15  2  0
 13 14  2  0
 13 15  1  0
 13 17  1  0
 14 30  1  0
 15 31  1  0
 16 18  2  0
 16 32  1  0
 17 33  1  0
 17 34  1  0
 17 35  1  0
 18 36  1  0
 18 37  1  0
M  STY  8   1 DAT   2 DAT   3 DAT   4 DAT   5 DAT   6 DAT   7 DAT   8 DAT
M  STY  8   9 DAT  10 DAT  11 DAT  12 DAT  13 DAT  14 DAT  15 DAT  16 DAT
M  STY  8  17 DAT  18 DAT  19 DAT  20 DAT  21 DAT  22 DAT  23 DAT  24 DAT
M  STY  8  25 DAT  26 DAT  27 DAT  28 DAT  29 DAT  30 DAT  31 DAT  32 DAT
M  STY  5  33 DAT  34 DAT  35 DAT  36 DAT  37 DAT
M  SAL   1  1   1
M  SED   1 [#35&h0]
M  SAL   2  1   2
M  SED   2 [#17&h0]
M  SAL   3  1   3
M  SED   3 [#8&h0]
M  SAL   4  1   4
M  SED   4 [#7&h0]
M  SAL   5  1   5
M  SED   5 [#6&h0]
M  SAL   6  1   6
M  SED   6 [#6&h0]
M  SAL   7  1   7
M  SED   7 [#6&h0]
M  SAL   8  1   8
M  SED   8 [#6&h0]
M  SAL   9  1   9
M  SED   9 [#6&h0]
M  SAL  10  1  10
M  SED  10 [#6&h0]
M  SAL  11  1  11
M  SED  11 [#6&h0]
M  SAL  12  1  12
M  SED  12 [#6&h0]
M  SAL  13  1  13
M  SED  13 [#6&h0]
M  SAL  14  1  14
M  SED  14 [#6&h0]
M  SAL  15  1  15
M  SED  15 [#6&h0]
M  SAL  16  1  16
M  SED  16 [#6&h0]
M  SAL  17  1  17
M  SED  17 [#6&h0]
M  SAL  18  1  18
M  SED  18 [#6&h0]
M  SAL  19  1  19
M  SED  19 [#1&h0]
M  SAL  20  1  20
M  SED  20 [#1&h0]
M  SAL  21  1  21
M  SED  21 [#1&h0]
M  SAL  22  1  22
M  SED  22 [#1&h0]
M  SAL  23  1  23
M  SED  23 [#1&h0]
M  SAL  24  1  24
M  SED  24 [#1&h0]
M  SAL  25  1  25
M  SED  25 [#1&h0]
M  SAL  26  1  26
M  SED  26 [#1&h0]
M  SAL  27  1  27
M  SED  27 [#1&h0]
M  SAL  28  1  28
M  SED  28 [#1&h0]
M  SAL  29  1  29
M  SED  29 [#1&h0]
M  SAL  30  1  30
M  SED  30 [#1&h0]
M  SAL  31  1  31
M  SED  31 [#1&h0]
M  SAL  32  1  32
M  SED  32 [#1&h0]
M  SAL  33  1  33
M  SED  33 [#1&h0]
M  SAL  34  1  34
M  SED  34 [#1&h0]
M  SAL  35  1  35
M  SED  35 [#1&h0]
M  SAL  36  1  36
M  SED  36 [#1&h0]
M  SAL  37  1  37
M  SED  37 [#1&h0]
M  END
>  <Activity>  (163) 
0.01

>  <Mapped(file=2032.csv.activities,property=Cached(PUBCHEM_COMPOUND_CID))>  (163) 
100

>  <MatchIndices>  (163) 
61 

>  <PUBCHEM_ATOM_DEF_STEREO_COUNT>  (163) 
0

>  <PUBCHEM_ATOM_UDEF_STEREO_COUNT>  (163) 
0

>  <PUBCHEM_BONDANNOTATIONS>  (163) 
14  15  8
14  16  8
15  18  8
16  19  8
17  18  8
17  19  8

>  <PUBCHEM_BOND_DEF_STEREO_COUNT>  (163) 
0

>  <PUBCHEM_BOND_UDEF_STEREO_COUNT>  (163) 
0

>  <PUBCHEM_CACTVS_COMPLEXITY>  (163) 
311

>  <PUBCHEM_CACTVS_HBOND_ACCEPTOR>  (163) 
6

>  <PUBCHEM_CACTVS_HBOND_DONOR>  (163) 
3

>  <PUBCHEM_CACTVS_ROTATABLE_BOND>  (163) 
9

>  <PUBCHEM_CACTVS_SUBSKEYS>  (163) 
AAADceB6OAAEEAAAAAAAAAAAAAAAAAAAAAAwAAAAAAAAAAABAAAAHgJQCAABrAbhmCYyDoLABgCIAiDSCAKCCAAgJUQIiIBMC6gNJiOFsxqGOCCk0BGJqhegwAAOIAAAMABADABAAABgAIAYAAAAAAAAAA==

>  <PUBCHEM_CACTVS_TAUTO_COUNT>  (163) 
1

>  <PUBCHEM_CACTVS_TPSA>  (163) 
95.9

>  <PUBCHEM_COMPONENT_COUNT>  (163) 
2

>  <PUBCHEM_COMPOUND_CANONICALIZED>  (163) 
1

>  <PUBCHEM_COMPOUND_CID>  (163) 
2923756

>  <PUBCHEM_COORDINATE_TYPE>  (163) 
1
5
255

>  <PUBCHEM_EXACT_MASS>  (163) 
421.029163

>  <PUBCHEM_HEAVY_ATOM_COUNT>  (163) 
24

>  <PUBCHEM_ISOTOPIC_ATOM_COUNT>  (163) 
0

>  <PUBCHEM_IUPAC_CAS_NAME>  (163) 
4-(2-bromo-6-chloro-4-methylphenoxy)-N-prop-2-enyl-1-butanamine; oxalic acid

>  <PUBCHEM_IUPAC_INCHI>  (163) 
InChI=1S/C14H19BrClNO.C2H2O4/c1-3-6-17-7-4-5-8-18-14-12(15)9-11(2)10-13(14)16;3-1(4)2(5)6/h3,9-10,17H,1,4-8H2,2H3;(H,3,4)(H,5,6)

>  <PUBCHEM_IUPAC_INCHIKEY>  (163) 
DKVSLEWCZLPDDW-UHFFFAOYSA-N

>  <PUBCHEM_IUPAC_NAME>  (163) 
4-(2-bromo-6-chloro-4-methylphenoxy)-N-prop-2-enylbutan-1-amine; oxalic acid

>  <PUBCHEM_IUPAC_OPENEYE_NAME>  (163) 
N-allyl-4-(2-bromo-6-chloro-4-methyl-phenoxy)butan-1-amine; oxalic acid

>  <PUBCHEM_IUPAC_SYSTEMATIC_NAME>  (163) 
4-(2-bromanyl-6-chloranyl-4-methyl-phenoxy)-N-prop-2-enyl-butan-1-amine; ethanedioic acid

>  <PUBCHEM_IUPAC_TRADITIONAL_NAME>  (163) 
allyl-[4-(2-bromo-6-chloro-4-methyl-phenoxy)butyl]amine; oxalic acid

>  <PUBCHEM_MOLECULAR_FORMULA>  (163) 
C16H21BrClNO5

>  <PUBCHEM_MOLECULAR_WEIGHT>  (163) 
422.69864

>  <PUBCHEM_MONOISOTOPIC_WEIGHT>  (163) 
421.029163

>  <PUBCHEM_OPENEYE_CAN_SMILES>  (163) 
CC1=CC(=C(C(=C1)Br)OCCCCNCC=C)Cl.C(=O)(C(=O)O)O

>  <PUBCHEM_OPENEYE_ISO_SMILES>  (163) 
CC1=CC(=C(C(=C1)Br)OCCCCNCC=C)Cl.C(=O)(C(=O)O)O

>  <PUBCHEM_TOTAL_CHARGE>  (163) 
0

$$$$
Largest isolated from Written by BCL::WriteToMDL,711084
     RDKit          2D

 33 34  0 33  0  0  0  0  0  0999 V2000
   -0.6917    0.3064    0.0000 S   0  0  0  0  0  0  0  0  0  0  0  0
   -6.4941   -1.2207    0.0000 F   0  0  0  0  0  0  0  0  0  0  0  0
   -0.3099   -1.1442    0.0000 O   0  0  0  0  0  0  0  0  0  0  0  0
   -1.0734    1.7570    0.0000 O   0  0  0  0  0  0  0  0  0  0  0  0
    0.7589    0.6882    0.0000 N   0  0  0  0  0  0  0  0  0  0  0  0
    1.1536    2.1353    0.0000 C   0  0  0  0  0  0  0  0  0  0  0  0
    1.8149   -0.3772    0.0000 C   0  0  0  0  0  0  0  0  0  0  0  0
   -2.1423   -0.0753    0.0000 C   0  0  0  0  0  0  0  0  0  0  0  0
    1.5483    3.5825    0.0000 C   0  0  0  0  0  0  0  0  0  0  0  0
    1.4202   -1.8243    0.0000 C   0  0  0  0  0  0  0  0  0  0  0  0
    3.2655    0.0046    0.0000 C   0  0  0  0  0  0  0  0  0  0  0  0
   -3.1982    0.9900    0.0000 C   0  0  0  0  0  0  0  0  0  0  0  0
   -2.5370   -1.5225    0.0000 C   0  0  0  0  0  0  0  0  0  0  0  0
    2.4761   -2.8897    0.0000 C   0  0  0  0  0  0  0  0  0  0  0  0
    4.3214   -1.0608    0.0000 C   0  0  0  0  0  0  0  0  0  0  0  0
   -4.6488    0.6083    0.0000 C   0  0  0  0  0  0  0  0  0  0  0  0
   -3.9876   -1.9043    0.0000 C   0  0  0  0  0  0  0  0  0  0  0  0
    3.9267   -2.5079    0.0000 C   0  0  0  0  0  0  0  0  0  0  0  0
   -5.0435   -0.8389    0.0000 C   0  0  0  0  0  0  0  0  0  0  0  0
   -0.2935    2.5300    0.0000 H   0  0  0  0  0  0  0  0  0  0  0  0
    2.6007    1.7407    0.0000 H   0  0  0  0  0  0  0  0  0  0  0  0
    2.9954    3.1878    0.0000 H   0  0  0  0  0  0  0  0  0  0  0  0
    0.1011    3.9772    0.0000 H   0  0  0  0  0  0  0  0  0  0  0  0
    1.9430    5.0296    0.0000 H   0  0  0  0  0  0  0  0  0  0  0  0
   -0.0304   -2.2061    0.0000 H   0  0  0  0  0  0  0  0  0  0  0  0
    3.6601    1.4517    0.0000 H   0  0  0  0  0  0  0  0  0  0  0  0
   -2.8035    2.4372    0.0000 H   0  0  0  0  0  0  0  0  0  0  0  0
   -1.4810   -2.5879    0.0000 H   0  0  0  0  0  0  0  0  0  0  0  0
    2.0814   -4.3368    0.0000 H   0  0  0  0  0  0  0  0  0  0  0  0
    5.7720   -0.6790    0.0000 H   0  0  0  0  0  0  0  0  0  0  0  0
   -5.7047    1.6736    0.0000 H   0  0  0  0  0  0  0  0  0  0  0  0
   -4.3822   -3.3514    0.0000 H   0  0  0  0  0  0  0  0  0  0  0  0
    4.9826   -3.5733    0.0000 H   0  0  0  0  0  0  0  0  0  0  0  0
  1  3  2  0
  1  4  2  0
  1  5  1  0
  1  8  1  0
  2 19  1  0
  5  6  1  0
  5  7  1  0
  6  9  1  0
  6 20  1  0
  6 21  1  0
  7 10  2  0
  7 11  1  0
  8 12  2  0
  8 13  1  0
  9 22  1  0
  9 23  1  0
  9 24  1  0
 10 14  1  0
 10 25  1  0
 11 15  2  0
 11 26  1  0
 12 16  1  0
 12 27  1  0
 13 17  2  0
 13 28  1  0
 14 18  2  0
 14 29  1  0
 15 18  1  0
 15 30  1  0
 16 19  2  0
 16 31  1  0
 17 19  1  0
 17 32  1  0
 18 33  1  0
M  STY  8   1 DAT   2 DAT   3 DAT   4 DAT   5 DAT   6 DAT   7 DAT   8 DAT
M  STY  8   9 DAT  10 DAT  11 DAT  12 DAT  13 DAT  14 DAT  15 DAT  16 DAT
M  STY  8  17 DAT  18 DAT  19 DAT  20 DAT  21 DAT  22 DAT  23 DAT  24 DAT
M  STY  8  25 DAT  26 DAT  27 DAT  28 DAT  29 DAT  30 DAT  31 DAT  32 DAT
M  STY  1  33 DAT
M  SAL   1  1   1
M  SED   1 [#16&h0]
M  SAL   2  1   2
M  SED   2 [#9&h0]
M  SAL   3  1   3
M  SED   3 [#8&h0]
M  SAL   4  1   4
M  SED   4 [#8&h0]
M  SAL   5  1   5
M  SED   5 [#7&h0]
M  SAL   6  1   6
M  SED   6 [#6&h0]
M  SAL   7  1   7
M  SED   7 [#6&h0]
M  SAL   8  1   8
M  SED   8 [#6&h0]
M  SAL   9  1   9
M  SED   9 [#6&h0]
M  SAL  10  1  10
M  SED  10 [#6&h0]
M  SAL  11  1  11
M  SED  11 [#6&h0]
M  SAL  12  1  12
M  SED  12 [#6&h0]
M  SAL  13  1  13
M  SED  13 [#6&h0]
M  SAL  14  1  14
M  SED  14 [#6&h0]
M  SAL  15  1  15
M  SED  15 [#6&h0]
M  SAL  16  1  16
M  SED  16 [#6&h0]
M  SAL  17  1  17
M  SED  17 [#6&h0]
M  SAL  18  1  18
M  SED  18 [#6&h0]
M  SAL  19  1  19
M  SED  19 [#6&h0]
M  SAL  20  1  20
M  SED  20 [#1&h0]
M  SAL  21  1  21
M  SED  21 [#1&h0]
M  SAL  22  1  22
M  SED  22 [#1&h0]
M  SAL  23  1  23
M  SED  23 [#1&h0]
M  SAL  24  1  24
M  SED  24 [#1&h0]
M  SAL  25  1  25
M  SED  25 [#1&h0]
M  SAL  26  1  26
M  SED  26 [#1&h0]
M  SAL  27  1  27
M  SED  27 [#1&h0]
M  SAL  28  1  28
M  SED  28 [#1&h0]
M  SAL  29  1  29
M  SED  29 [#1&h0]
M  SAL  30  1  30
M  SED  30 [#1&h0]
M  SAL  31  1  31
M  SED  31 [#1&h0]
M  SAL  32  1  32
M  SED  32 [#1&h0]
M  SAL  33  1  33
M  SED  33 [#1&h0]
M  END
>  <Activity>  (164) 
0.01

>  <Mapped(file=2032.csv.activities,property=Cached(PUBCHEM_COMPOUND_CID))>  (164) 
100

>  <MatchIndices>  (164) 
99 

>  <PUBCHEM_ATOM_DEF_STEREO_COUNT>  (164) 
0

>  <PUBCHEM_ATOM_UDEF_STEREO_COUNT>  (164) 
0

>  <PUBCHEM_BONDANNOTATIONS>  (164) 
10  14  8
11  15  8
12  16  8
13  17  8
14  18  8
15  18  8
16  19  8
17  19  8
7  10  8
7  11  8
8  12  8
8  13  8

>  <PUBCHEM_BOND_DEF_STEREO_COUNT>  (164) 
0

>  <PUBCHEM_BOND_UDEF_STEREO_COUNT>  (164) 
0

>  <PUBCHEM_CACTVS_COMPLEXITY>  (164) 
365

>  <PUBCHEM_CACTVS_HBOND_ACCEPTOR>  (164) 
4

>  <PUBCHEM_CACTVS_HBOND_DONOR>  (164) 
0

>  <PUBCHEM_CACTVS_ROTATABLE_BOND>  (164) 
4

>  <PUBCHEM_CACTVS_SUBSKEYS>  (164) 
AAADccByMQBAAAAAAAAAAAAAAAAAAAAAAAAwYAAAAAAAAAABQAAAHQQAQAAACAjBUAwywYIAAAKAACRCQHDCABAhAgAIiBgIZIgIICLAkZGEIAhggADIyAcQAAAAAAAAAAAAAAAAAAAAAAAAAAAAAAAAAA==

>  <PUBCHEM_CACTVS_TAUTO_COUNT>  (164) 
1

>  <PUBCHEM_CACTVS_TPSA>  (164) 
45.8

>  <PUBCHEM_COMPONENT_COUNT>  (164) 
1

>  <PUBCHEM_COMPOUND_CANONICALIZED>  (164) 
1

>  <PUBCHEM_COMPOUND_CID>  (164) 
711084

>  <PUBCHEM_COORDINATE_TYPE>  (164) 
1
5
255

>  <PUBCHEM_EXACT_MASS>  (164) 
279.072928

>  <PUBCHEM_HEAVY_ATOM_COUNT>  (164) 
19

>  <PUBCHEM_ISOTOPIC_ATOM_COUNT>  (164) 
0

>  <PUBCHEM_IUPAC_CAS_NAME>  (164) 
N-ethyl-4-fluoro-N-phenylbenzenesulfonamide

>  <PUBCHEM_IUPAC_INCHI>  (164) 
InChI=1S/C14H14FNO2S/c1-2-16(13-6-4-3-5-7-13)19(17,18)14-10-8-12(15)9-11-14/h3-11H,2H2,1H3

>  <PUBCHEM_IUPAC_INCHIKEY>  (164) 
NLPPRZFTFSBKLY-UHFFFAOYSA-N

>  <PUBCHEM_IUPAC_NAME>  (164) 
N-ethyl-4-fluoro-N-phenylbenzenesulfonamide

>  <PUBCHEM_IUPAC_OPENEYE_NAME>  (164) 
N-ethyl-4-fluoro-N-phenyl-benzenesulfonamide

>  <PUBCHEM_IUPAC_SYSTEMATIC_NAME>  (164) 
N-ethyl-4-fluoranyl-N-phenyl-benzenesulfonamide

>  <PUBCHEM_IUPAC_TRADITIONAL_NAME>  (164) 
N-ethyl-4-fluoro-N-phenyl-benzenesulfonamide

>  <PUBCHEM_MOLECULAR_FORMULA>  (164) 
C14H14FNO2S

>  <PUBCHEM_MOLECULAR_WEIGHT>  (164) 
279.329863

>  <PUBCHEM_MONOISOTOPIC_WEIGHT>  (164) 
279.072928

>  <PUBCHEM_OPENEYE_CAN_SMILES>  (164) 
CCN(C1=CC=CC=C1)S(=O)(=O)C2=CC=C(C=C2)F

>  <PUBCHEM_OPENEYE_ISO_SMILES>  (164) 
CCN(C1=CC=CC=C1)S(=O)(=O)C2=CC=C(C=C2)F

>  <PUBCHEM_TOTAL_CHARGE>  (164) 
0

>  <PUBCHEM_XLOGP3_AA>  (164) 
3.1

$$$$
Largest isolated from Written by BCL::WriteToMDL,5152
     RDKit          2D

 67 68  0 67  0  0  0  0  0  0999 V2000
    4.6958   -3.3460    0.0000 O   0  0  0  0  0  0  0  0  0  0  0  0
   -8.5687   -2.0035    0.0000 O   0  0  0  0  0  0  0  0  0  0  0  0
  -11.0039    3.6815    0.0000 O   0  0  0  0  0  0  0  0  0  0  0  0
  -13.6534    0.7268    0.0000 O   0  0  0  0  0  0  0  0  0  0  0  0
   -4.9855    0.7187    0.0000 N   0  0  0  0  0  0  0  0  0  0  0  0
   -0.8363   -1.0233    0.0000 C   0  0  0  0  0  0  0  0  0  0  0  0
    0.5467   -1.6040    0.0000 C   0  0  0  0  0  0  0  0  0  0  0  0
   -2.2194   -0.4426    0.0000 C   0  0  0  0  0  0  0  0  0  0  0  0
    1.9298   -2.1847    0.0000 C   0  0  0  0  0  0  0  0  0  0  0  0
   -3.6024    0.1381    0.0000 C   0  0  0  0  0  0  0  0  0  0  0  0
   -6.1799   -0.1887    0.0000 C   0  0  0  0  0  0  0  0  0  0  0  0
    3.3128   -2.7653    0.0000 C   0  0  0  0  0  0  0  0  0  0  0  0
   -7.3743   -1.0961    0.0000 C   0  0  0  0  0  0  0  0  0  0  0  0
    7.0847   -1.5312    0.0000 C   0  0  0  0  0  0  0  0  0  0  0  0
    8.2791   -0.6238    0.0000 C   0  0  0  0  0  0  0  0  0  0  0  0
    5.8902   -2.4386    0.0000 C   0  0  0  0  0  0  0  0  0  0  0  0
   -8.2817    0.0983    0.0000 C   0  0  0  0  0  0  0  0  0  0  0  0
    9.4735    0.2836    0.0000 C   0  0  0  0  0  0  0  0  0  0  0  0
   -9.7698   -0.0903    0.0000 C   0  0  0  0  0  0  0  0  0  0  0  0
   10.6679    1.1911    0.0000 C   0  0  0  0  0  0  0  0  0  0  0  0
   -7.7010    1.4814    0.0000 C   0  0  0  0  0  0  0  0  0  0  0  0
  -10.6772    1.1041    0.0000 C   0  0  0  0  0  0  0  0  0  0  0  0
   -8.6084    2.6758    0.0000 C   0  0  0  0  0  0  0  0  0  0  0  0
  -10.0965    2.4871    0.0000 C   0  0  0  0  0  0  0  0  0  0  0  0
   12.0509    0.6104    0.0000 C   0  0  0  0  0  0  0  0  0  0  0  0
   10.4792    2.6792    0.0000 C   0  0  0  0  0  0  0  0  0  0  0  0
  -12.1653    0.9154    0.0000 C   0  0  0  0  0  0  0  0  0  0  0  0
   13.2453    1.5178    0.0000 C   0  0  0  0  0  0  0  0  0  0  0  0
   11.6736    3.5866    0.0000 C   0  0  0  0  0  0  0  0  0  0  0  0
   13.0567    3.0059    0.0000 C   0  0  0  0  0  0  0  0  0  0  0  0
   -1.4170   -2.4063    0.0000 H   0  0  0  0  0  0  0  0  0  0  0  0
   -0.2557    0.3597    0.0000 H   0  0  0  0  0  0  0  0  0  0  0  0
    1.1274   -0.2209    0.0000 H   0  0  0  0  0  0  0  0  0  0  0  0
   -0.0340   -2.9870    0.0000 H   0  0  0  0  0  0  0  0  0  0  0  0
   -1.6387    0.9404    0.0000 H   0  0  0  0  0  0  0  0  0  0  0  0
   -2.8001   -1.8257    0.0000 H   0  0  0  0  0  0  0  0  0  0  0  0
    1.3491   -3.5677    0.0000 H   0  0  0  0  0  0  0  0  0  0  0  0
    2.5104   -0.8016    0.0000 H   0  0  0  0  0  0  0  0  0  0  0  0
   -3.0217    1.5211    0.0000 H   0  0  0  0  0  0  0  0  0  0  0  0
   -4.1831   -1.2450    0.0000 H   0  0  0  0  0  0  0  0  0  0  0  0
   -6.5291    0.6253    0.0000 H   0  0  0  0  0  0  0  0  0  0  0  0
   -5.2725   -1.3831    0.0000 H   0  0  0  0  0  0  0  0  0  0  0  0
    3.8935   -1.3823    0.0000 H   0  0  0  0  0  0  0  0  0  0  0  0
    2.7321   -4.1484    0.0000 H   0  0  0  0  0  0  0  0  0  0  0  0
   -5.1741    2.2068    0.0000 H   0  0  0  0  0  0  0  0  0  0  0  0
   -6.4669   -2.2905    0.0000 H   0  0  0  0  0  0  0  0  0  0  0  0
    6.1772   -0.3368    0.0000 H   0  0  0  0  0  0  0  0  0  0  0  0
    7.9921   -2.7256    0.0000 H   0  0  0  0  0  0  0  0  0  0  0  0
    9.1865   -1.8182    0.0000 H   0  0  0  0  0  0  0  0  0  0  0  0
    7.3716    0.5706    0.0000 H   0  0  0  0  0  0  0  0  0  0  0  0
    6.7977   -3.6330    0.0000 H   0  0  0  0  0  0  0  0  0  0  0  0
    4.9828   -1.2442    0.0000 H   0  0  0  0  0  0  0  0  0  0  0  0
   10.3809   -0.9108    0.0000 H   0  0  0  0  0  0  0  0  0  0  0  0
    8.5660    1.4781    0.0000 H   0  0  0  0  0  0  0  0  0  0  0  0
  -10.3505   -1.4734    0.0000 H   0  0  0  0  0  0  0  0  0  0  0  0
   -6.8223    1.5927    0.0000 H   0  0  0  0  0  0  0  0  0  0  0  0
   -8.3800   -3.4916    0.0000 H   0  0  0  0  0  0  0  0  0  0  0  0
   -8.0277    4.0588    0.0000 H   0  0  0  0  0  0  0  0  0  0  0  0
   12.2396   -0.8777    0.0000 H   0  0  0  0  0  0  0  0  0  0  0  0
    9.0962    3.2598    0.0000 H   0  0  0  0  0  0  0  0  0  0  0  0
  -11.9766   -0.5727    0.0000 H   0  0  0  0  0  0  0  0  0  0  0  0
  -12.3539    2.4035    0.0000 H   0  0  0  0  0  0  0  0  0  0  0  0
   14.6284    0.9371    0.0000 H   0  0  0  0  0  0  0  0  0  0  0  0
   11.4850    5.0747    0.0000 H   0  0  0  0  0  0  0  0  0  0  0  0
   14.2511    3.9133    0.0000 H   0  0  0  0  0  0  0  0  0  0  0  0
  -12.4920    3.4929    0.0000 H   0  0  0  0  0  0  0  0  0  0  0  0
  -14.2341   -0.6563    0.0000 H   0  0  0  0  0  0  0  0  0  0  0  0
  1 12  1  0
  1 16  1  0
  2 13  1  0
  2 57  1  0
  3 24  1  0
  3 66  1  0
  4 27  1  0
  4 67  1  0
  5 10  1  0
  5 11  1  0
  5 45  1  0
  6  7  1  0
  6  8  1  0
  6 31  1  0
  6 32  1  0
  7  9  1  0
  7 33  1  0
  7 34  1  0
  8 10  1  0
  8 35  1  0
  8 36  1  0
  9 12  1  0
  9 37  1  0
  9 38  1  0
 10 39  1  0
 10 40  1  0
 11 13  1  0
 11 41  1  0
 11 42  1  0
 12 43  1  0
 12 44  1  0
 13 17  1  0
 13 46  1  1
 14 15  1  0
 14 16  1  0
 14 47  1  0
 14 48  1  0
 15 18  1  0
 15 49  1  0
 15 50  1  0
 16 51  1  0
 16 52  1  0
 17 19  2  0
 17 21  1  0
 18 20  1  0
 18 53  1  0
 18 54  1  0
 19 22  1  0
 19 55  1  0
 20 25  2  0
 20 26  1  0
 21 23  2  0
 21 56  1  0
 22 24  2  0
 22 27  1  0
 23 24  1  0
 23 58  1  0
 25 28  1  0
 25 59  1  0
 26 29  2  0
 26 60  1  0
 27 61  1  0
 27 62  1  0
 28 30  2  0
 28 63  1  0
 29 30  1  0
 29 64  1  0
 30 65  1  0
M  STY  8   1 DAT   2 DAT   3 DAT   4 DAT   5 DAT   6 DAT   7 DAT   8 DAT
M  STY  8   9 DAT  10 DAT  11 DAT  12 DAT  13 DAT  14 DAT  15 DAT  16 DAT
M  STY  8  17 DAT  18 DAT  19 DAT  20 DAT  21 DAT  22 DAT  23 DAT  24 DAT
M  STY  8  25 DAT  26 DAT  27 DAT  28 DAT  29 DAT  30 DAT  31 DAT  32 DAT
M  STY  8  33 DAT  34 DAT  35 DAT  36 DAT  37 DAT  38 DAT  39 DAT  40 DAT
M  STY  8  41 DAT  42 DAT  43 DAT  44 DAT  45 DAT  46 DAT  47 DAT  48 DAT
M  STY  8  49 DAT  50 DAT  51 DAT  52 DAT  53 DAT  54 DAT  55 DAT  56 DAT
M  STY  8  57 DAT  58 DAT  59 DAT  60 DAT  61 DAT  62 DAT  63 DAT  64 DAT
M  STY  3  65 DAT  66 DAT  67 DAT
M  SAL   1  1   1
M  SED   1 [#8&h0]
M  SAL   2  1   2
M  SED   2 [#8&h0]
M  SAL   3  1   3
M  SED   3 [#8&h0]
M  SAL   4  1   4
M  SED   4 [#8&h0]
M  SAL   5  1   5
M  SED   5 [#7&h0]
M  SAL   6  1   6
M  SED   6 [#6&h0]
M  SAL   7  1   7
M  SED   7 [#6&h0]
M  SAL   8  1   8
M  SED   8 [#6&h0]
M  SAL   9  1   9
M  SED   9 [#6&h0]
M  SAL  10  1  10
M  SED  10 [#6&h0]
M  SAL  11  1  11
M  SED  11 [#6&h0]
M  SAL  12  1  12
M  SED  12 [#6&h0]
M  SAL  13  1  13
M  SED  13 [#6&h0]
M  SAL  14  1  14
M  SED  14 [#6&h0]
M  SAL  15  1  15
M  SED  15 [#6&h0]
M  SAL  16  1  16
M  SED  16 [#6&h0]
M  SAL  17  1  17
M  SED  17 [#6&h0]
M  SAL  18  1  18
M  SED  18 [#6&h0]
M  SAL  19  1  19
M  SED  19 [#6&h0]
M  SAL  20  1  20
M  SED  20 [#6&h0]
M  SAL  21  1  21
M  SED  21 [#6&h0]
M  SAL  22  1  22
M  SED  22 [#6&h0]
M  SAL  23  1  23
M  SED  23 [#6&h0]
M  SAL  24  1  24
M  SED  24 [#6&h0]
M  SAL  25  1  25
M  SED  25 [#6&h0]
M  SAL  26  1  26
M  SED  26 [#6&h0]
M  SAL  27  1  27
M  SED  27 [#6&h0]
M  SAL  28  1  28
M  SED  28 [#6&h0]
M  SAL  29  1  29
M  SED  29 [#6&h0]
M  SAL  30  1  30
M  SED  30 [#6&h0]
M  SAL  31  1  31
M  SED  31 [#1&h0]
M  SAL  32  1  32
M  SED  32 [#1&h0]
M  SAL  33  1  33
M  SED  33 [#1&h0]
M  SAL  34  1  34
M  SED  34 [#1&h0]
M  SAL  35  1  35
M  SED  35 [#1&h0]
M  SAL  36  1  36
M  SED  36 [#1&h0]
M  SAL  37  1  37
M  SED  37 [#1&h0]
M  SAL  38  1  38
M  SED  38 [#1&h0]
M  SAL  39  1  39
M  SED  39 [#1&h0]
M  SAL  40  1  40
M  SED  40 [#1&h0]
M  SAL  41  1  41
M  SED  41 [#1&h0]
M  SAL  42  1  42
M  SED  42 [#1&h0]
M  SAL  43  1  43
M  SED  43 [#1&h0]
M  SAL  44  1  44
M  SED  44 [#1&h0]
M  SAL  45  1  45
M  SED  45 [#1&h0]
M  SAL  46  1  46
M  SED  46 [#1&h0]
M  SAL  47  1  47
M  SED  47 [#1&h0]
M  SAL  48  1  48
M  SED  48 [#1&h0]
M  SAL  49  1  49
M  SED  49 [#1&h0]
M  SAL  50  1  50
M  SED  50 [#1&h0]
M  SAL  51  1  51
M  SED  51 [#1&h0]
M  SAL  52  1  52
M  SED  52 [#1&h0]
M  SAL  53  1  53
M  SED  53 [#1&h0]
M  SAL  54  1  54
M  SED  54 [#1&h0]
M  SAL  55  1  55
M  SED  55 [#1&h0]
M  SAL  56  1  56
M  SED  56 [#1&h0]
M  SAL  57  1  57
M  SED  57 [#1&h0]
M  SAL  58  1  58
M  SED  58 [#1&h0]
M  SAL  59  1  59
M  SED  59 [#1&h0]
M  SAL  60  1  60
M  SED  60 [#1&h0]
M  SAL  61  1  61
M  SED  61 [#1&h0]
M  SAL  62  1  62
M  SED  62 [#1&h0]
M  SAL  63  1  63
M  SED  63 [#1&h0]
M  SAL  64  1  64
M  SED  64 [#1&h0]
M  SAL  65  1  65
M  SED  65 [#1&h0]
M  SAL  66  1  66
M  SED  66 [#1&h0]
M  SAL  67  1  67
M  SED  67 [#1&h0]
M  END
>  <Activity>  (165) 
0.01

>  <Mapped(file=2032.csv.activities,property=Cached(PUBCHEM_COMPOUND_CID))>  (165) 
100

>  <MatchIndices>  (165) 
144 

>  <PUBCHEM_ATOM_DEF_STEREO_COUNT>  (165) 
0

>  <PUBCHEM_ATOM_UDEF_STEREO_COUNT>  (165) 
1

>  <PUBCHEM_BONDANNOTATIONS>  (165) 
13  46  3
17  19  8
17  21  8
19  22  8
20  25  8
20  26  8
21  23  8
22  24  8
23  24  8
25  28  8
26  29  8
28  30  8
29  30  8

>  <PUBCHEM_BOND_DEF_STEREO_COUNT>  (165) 
0

>  <PUBCHEM_BOND_UDEF_STEREO_COUNT>  (165) 
0

>  <PUBCHEM_CACTVS_COMPLEXITY>  (165) 
403

>  <PUBCHEM_CACTVS_HBOND_ACCEPTOR>  (165) 
5

>  <PUBCHEM_CACTVS_HBOND_DONOR>  (165) 
4

>  <PUBCHEM_CACTVS_ROTATABLE_BOND>  (165) 
16

>  <PUBCHEM_CACTVS_SUBSKEYS>  (165) 
AAADcfB6OAAAAAAAAAAAAAAAAAAAAAAAAAAwYAAAAAAAAAABQAAAHgAQCAAADBThmAYwBoLABgCAAiBCAAACAAAgIAAIiIAOCIgKNyKCkROGcAAl0BGYmAeQ4PQOIAACAAAIAABAAAQAABAAAAAAAAAAAA==

>  <PUBCHEM_CACTVS_TAUTO_COUNT>  (165) 
3

>  <PUBCHEM_CACTVS_TPSA>  (165) 
82

>  <PUBCHEM_COMPONENT_COUNT>  (165) 
1

>  <PUBCHEM_COMPOUND_CANONICALIZED>  (165) 
1

>  <PUBCHEM_COMPOUND_CID>  (165) 
5152

>  <PUBCHEM_COORDINATE_TYPE>  (165) 
1
5
255

>  <PUBCHEM_EXACT_MASS>  (165) 
415.272259

>  <PUBCHEM_HEAVY_ATOM_COUNT>  (165) 
30

>  <PUBCHEM_ISOTOPIC_ATOM_COUNT>  (165) 
0

>  <PUBCHEM_IUPAC_CAS_NAME>  (165) 
2-(hydroxymethyl)-4-[1-hydroxy-2-[6-(4-phenylbutoxy)hexylamino]ethyl]phenol

>  <PUBCHEM_IUPAC_INCHI>  (165) 
InChI=1S/C25H37NO4/c27-20-23-18-22(13-14-24(23)28)25(29)19-26-15-7-1-2-8-16-30-17-9-6-12-21-10-4-3-5-11-21/h3-5,10-11,13-14,18,25-29H,1-2,6-9,12,15-17,19-20H2

>  <PUBCHEM_IUPAC_INCHIKEY>  (165) 
GIIZNNXWQWCKIB-UHFFFAOYSA-N

>  <PUBCHEM_IUPAC_NAME>  (165) 
2-(hydroxymethyl)-4-[1-hydroxy-2-[6-(4-phenylbutoxy)hexylamino]ethyl]phenol

>  <PUBCHEM_IUPAC_OPENEYE_NAME>  (165) 
2-(hydroxymethyl)-4-[1-hydroxy-2-[6-(4-phenylbutoxy)hexylamino]ethyl]phenol

>  <PUBCHEM_IUPAC_SYSTEMATIC_NAME>  (165) 
2-(hydroxymethyl)-4-[1-oxidanyl-2-[6-(4-phenylbutoxy)hexylamino]ethyl]phenol

>  <PUBCHEM_IUPAC_TRADITIONAL_NAME>  (165) 
4-[1-hydroxy-2-[6-(4-phenylbutoxy)hexylamino]ethyl]-2-methylol-phenol

>  <PUBCHEM_MOLECULAR_FORMULA>  (165) 
C25H37NO4

>  <PUBCHEM_MOLECULAR_WEIGHT>  (165) 
415.56558

>  <PUBCHEM_MONOISOTOPIC_WEIGHT>  (165) 
415.272259

>  <PUBCHEM_OPENEYE_CAN_SMILES>  (165) 
C1=CC=C(C=C1)CCCCOCCCCCCNCC(C2=CC(=C(C=C2)O)CO)O

>  <PUBCHEM_OPENEYE_ISO_SMILES>  (165) 
C1=CC=C(C=C1)CCCCOCCCCCCNCC(C2=CC(=C(C=C2)O)CO)O

>  <PUBCHEM_TOTAL_CHARGE>  (165) 
0

>  <PUBCHEM_XLOGP3_AA>  (165) 
3.9

$$$$
Largest isolated from Written by BCL::WriteToMDL,2738778
     RDKit          2D

 33 35  0 33  0  0  0  0  0  0999 V2000
    7.7300    1.8975    0.0000 Cl  0  0  0  0  0  0  0  0  0  0  0  0
    2.5194   -1.0773    0.0000 S   0  0  0  0  0  0  0  0  0  0  0  0
   -2.9893    1.5031    0.0000 S   0  0  0  0  0  0  0  0  0  0  0  0
   -5.9944   -1.2372    0.0000 S   0  0  0  0  0  0  0  0  0  0  0  0
    1.7757    0.2254    0.0000 O   0  0  0  0  0  0  0  0  0  0  0  0
    3.2630   -2.3800    0.0000 O   0  0  0  0  0  0  0  0  0  0  0  0
    1.2167   -1.8210    0.0000 N   0  0  0  0  0  0  0  0  0  0  0  0
   -2.7473   -0.9118    0.0000 N   0  0  0  0  0  0  0  0  0  0  0  0
   -0.0787   -1.0647    0.0000 C   0  0  0  0  0  0  0  0  0  0  0  0
    3.8220   -0.3336    0.0000 C   0  0  0  0  0  0  0  0  0  0  0  0
   -1.3741   -0.3084    0.0000 C   0  0  0  0  0  0  0  0  0  0  0  0
    5.1174   -1.0899    0.0000 C   0  0  0  0  0  0  0  0  0  0  0  0
    3.8293    1.1664    0.0000 C   0  0  0  0  0  0  0  0  0  0  0  0
   -3.7456    0.2077    0.0000 C   0  0  0  0  0  0  0  0  0  0  0  0
   -1.5236    1.1841    0.0000 C   0  0  0  0  0  0  0  0  0  0  0  0
   -5.2381    0.0582    0.0000 C   0  0  0  0  0  0  0  0  0  0  0  0
    6.4201   -0.3462    0.0000 C   0  0  0  0  0  0  0  0  0  0  0  0
    5.1320    1.9101    0.0000 C   0  0  0  0  0  0  0  0  0  0  0  0
    6.4273    1.1538    0.0000 C   0  0  0  0  0  0  0  0  0  0  0  0
   -6.2364    1.1778    0.0000 C   0  0  0  0  0  0  0  0  0  0  0  0
   -7.6097    0.5743    0.0000 C   0  0  0  0  0  0  0  0  0  0  0  0
   -7.4601   -0.9182    0.0000 C   0  0  0  0  0  0  0  0  0  0  0  0
   -0.8350   -2.3601    0.0000 H   0  0  0  0  0  0  0  0  0  0  0  0
    0.6776    0.2307    0.0000 H   0  0  0  0  0  0  0  0  0  0  0  0
    1.2094   -3.3210    0.0000 H   0  0  0  0  0  0  0  0  0  0  0  0
    5.1101   -2.5899    0.0000 H   0  0  0  0  0  0  0  0  0  0  0  0
    2.5339    1.9227    0.0000 H   0  0  0  0  0  0  0  0  0  0  0  0
   -0.4040    2.1824    0.0000 H   0  0  0  0  0  0  0  0  0  0  0  0
    7.7154   -1.1025    0.0000 H   0  0  0  0  0  0  0  0  0  0  0  0
    5.1392    3.4100    0.0000 H   0  0  0  0  0  0  0  0  0  0  0  0
   -5.9174    2.6435    0.0000 H   0  0  0  0  0  0  0  0  0  0  0  0
   -8.9051    1.3306    0.0000 H   0  0  0  0  0  0  0  0  0  0  0  0
   -8.5797   -1.9165    0.0000 H   0  0  0  0  0  0  0  0  0  0  0  0
  1 19  1  0
  2  5  2  0
  2  6  2  0
  2  7  1  0
  2 10  1  0
  3 14  1  0
  3 15  1  0
  4 16  1  0
  4 22  1  0
  7  9  1  0
  7 25  1  0
  8 11  1  0
  8 14  2  0
  9 11  1  0
  9 23  1  0
  9 24  1  0
 10 12  2  0
 10 13  1  0
 11 15  2  0
 12 17  1  0
 12 26  1  0
 13 18  2  0
 13 27  1  0
 14 16  1  0
 15 28  1  0
 16 20  2  0
 17 19  2  0
 17 29  1  0
 18 19  1  0
 18 30  1  0
 20 21  1  0
 20 31  1  0
 21 22  2  0
 21 32  1  0
 22 33  1  0
M  STY  8   1 DAT   2 DAT   3 DAT   4 DAT   5 DAT   6 DAT   7 DAT   8 DAT
M  STY  8   9 DAT  10 DAT  11 DAT  12 DAT  13 DAT  14 DAT  15 DAT  16 DAT
M  STY  8  17 DAT  18 DAT  19 DAT  20 DAT  21 DAT  22 DAT  23 DAT  24 DAT
M  STY  8  25 DAT  26 DAT  27 DAT  28 DAT  29 DAT  30 DAT  31 DAT  32 DAT
M  STY  1  33 DAT
M  SAL   1  1   1
M  SED   1 [#17&h0]
M  SAL   2  1   2
M  SED   2 [#16&h0]
M  SAL   3  1   3
M  SED   3 [#16&h0]
M  SAL   4  1   4
M  SED   4 [#16&h0]
M  SAL   5  1   5
M  SED   5 [#8&h0]
M  SAL   6  1   6
M  SED   6 [#8&h0]
M  SAL   7  1   7
M  SED   7 [#7&h0]
M  SAL   8  1   8
M  SED   8 [#7&h0]
M  SAL   9  1   9
M  SED   9 [#6&h0]
M  SAL  10  1  10
M  SED  10 [#6&h0]
M  SAL  11  1  11
M  SED  11 [#6&h0]
M  SAL  12  1  12
M  SED  12 [#6&h0]
M  SAL  13  1  13
M  SED  13 [#6&h0]
M  SAL  14  1  14
M  SED  14 [#6&h0]
M  SAL  15  1  15
M  SED  15 [#6&h0]
M  SAL  16  1  16
M  SED  16 [#6&h0]
M  SAL  17  1  17
M  SED  17 [#6&h0]
M  SAL  18  1  18
M  SED  18 [#6&h0]
M  SAL  19  1  19
M  SED  19 [#6&h0]
M  SAL  20  1  20
M  SED  20 [#6&h0]
M  SAL  21  1  21
M  SED  21 [#6&h0]
M  SAL  22  1  22
M  SED  22 [#6&h0]
M  SAL  23  1  23
M  SED  23 [#1&h0]
M  SAL  24  1  24
M  SED  24 [#1&h0]
M  SAL  25  1  25
M  SED  25 [#1&h0]
M  SAL  26  1  26
M  SED  26 [#1&h0]
M  SAL  27  1  27
M  SED  27 [#1&h0]
M  SAL  28  1  28
M  SED  28 [#1&h0]
M  SAL  29  1  29
M  SED  29 [#1&h0]
M  SAL  30  1  30
M  SED  30 [#1&h0]
M  SAL  31  1  31
M  SED  31 [#1&h0]
M  SAL  32  1  32
M  SED  32 [#1&h0]
M  SAL  33  1  33
M  SED  33 [#1&h0]
M  END
>  <Activity>  (166) 
0.01

>  <Mapped(file=2032.csv.activities,property=Cached(PUBCHEM_COMPOUND_CID))>  (166) 
100

>  <MatchIndices>  (166) 
149 

>  <PUBCHEM_ATOM_DEF_STEREO_COUNT>  (166) 
0

>  <PUBCHEM_ATOM_UDEF_STEREO_COUNT>  (166) 
0

>  <PUBCHEM_BONDANNOTATIONS>  (166) 
10  12  8
10  13  8
11  15  8
12  17  8
13  18  8
16  20  8
17  19  8
18  19  8
20  21  8
21  22  8
3  14  8
3  15  8
4  16  8
4  22  8
8  11  8
8  14  8

>  <PUBCHEM_BOND_DEF_STEREO_COUNT>  (166) 
0

>  <PUBCHEM_BOND_UDEF_STEREO_COUNT>  (166) 
0

>  <PUBCHEM_CACTVS_COMPLEXITY>  (166) 
463

>  <PUBCHEM_CACTVS_HBOND_ACCEPTOR>  (166) 
5

>  <PUBCHEM_CACTVS_HBOND_DONOR>  (166) 
1

>  <PUBCHEM_CACTVS_ROTATABLE_BOND>  (166) 
5

>  <PUBCHEM_CACTVS_SUBSKEYS>  (166) 
AAADccBzMABkAAAAAAAAAAAAAAAAAWJAAAAwAAAAAAAAAAAB8AAAHAYQQAAACArFViSwgZJIEAqkASRiRHDD8LBhDzhIiLwwJpgIYKKhkxGUIAhggACoiAcQAAAAAAIAAAAAAAAABAAAAAAAAAAAAAAAAA==

>  <PUBCHEM_CACTVS_TAUTO_COUNT>  (166) 
1

>  <PUBCHEM_CACTVS_TPSA>  (166) 
124

>  <PUBCHEM_COMPONENT_COUNT>  (166) 
1

>  <PUBCHEM_COMPOUND_CANONICALIZED>  (166) 
1

>  <PUBCHEM_COMPOUND_CID>  (166) 
2738778

>  <PUBCHEM_COORDINATE_TYPE>  (166) 
1
5
255

>  <PUBCHEM_EXACT_MASS>  (166) 
369.967118

>  <PUBCHEM_HEAVY_ATOM_COUNT>  (166) 
22

>  <PUBCHEM_ISOTOPIC_ATOM_COUNT>  (166) 
0

>  <PUBCHEM_IUPAC_CAS_NAME>  (166) 
4-chloro-N-[(2-thiophen-2-yl-4-thiazolyl)methyl]benzenesulfonamide

>  <PUBCHEM_IUPAC_INCHI>  (166) 
InChI=1S/C14H11ClN2O2S3/c15-10-3-5-12(6-4-10)22(18,19)16-8-11-9-21-14(17-11)13-2-1-7-20-13/h1-7,9,16H,8H2

>  <PUBCHEM_IUPAC_INCHIKEY>  (166) 
MMZPFRDPFBXABJ-UHFFFAOYSA-N

>  <PUBCHEM_IUPAC_NAME>  (166) 
4-chloro-N-[(2-thiophen-2-yl-1,3-thiazol-4-yl)methyl]benzenesulfonamide

>  <PUBCHEM_IUPAC_OPENEYE_NAME>  (166) 
4-chloro-N-[[2-(2-thienyl)thiazol-4-yl]methyl]benzenesulfonamide

>  <PUBCHEM_IUPAC_SYSTEMATIC_NAME>  (166) 
4-chloranyl-N-[(2-thiophen-2-yl-1,3-thiazol-4-yl)methyl]benzenesulfonamide

>  <PUBCHEM_IUPAC_TRADITIONAL_NAME>  (166) 
4-chloro-N-[[2-(2-thienyl)thiazol-4-yl]methyl]benzenesulfonamide

>  <PUBCHEM_MOLECULAR_FORMULA>  (166) 
C14H11ClN2O2S3

>  <PUBCHEM_MOLECULAR_WEIGHT>  (166) 
370.89734

>  <PUBCHEM_MONOISOTOPIC_WEIGHT>  (166) 
369.967118

>  <PUBCHEM_OPENEYE_CAN_SMILES>  (166) 
C1=CSC(=C1)C2=NC(=CS2)CNS(=O)(=O)C3=CC=C(C=C3)Cl

>  <PUBCHEM_OPENEYE_ISO_SMILES>  (166) 
C1=CSC(=C1)C2=NC(=CS2)CNS(=O)(=O)C3=CC=C(C=C3)Cl

>  <PUBCHEM_TOTAL_CHARGE>  (166) 
0

>  <PUBCHEM_XLOGP3_AA>  (166) 
3.5

$$$$
Largest isolated from Written by BCL::WriteToMDL,9556823
     RDKit          2D

 22 22  0 22  0  0  0  0  0  0999 V2000
    0.3966    1.8131    0.0000 Cl  0  0  0  0  0  0  0  0  0  0  0  0
    5.5727    1.3579    0.0000 Cl  0  0  0  0  0  0  0  0  0  0  0  0
   -1.0946   -0.3144    0.0000 N   0  0  0  0  0  0  0  0  0  0  0  0
   -2.4544   -0.9477    0.0000 N   0  0  0  0  0  0  0  0  0  0  0  0
   -5.0424   -0.7201    0.0000 N   0  0  0  0  0  0  0  0  0  0  0  0
   -3.5513    1.4075    0.0000 N   0  0  0  0  0  0  0  0  0  0  0  0
    1.4935   -0.5420    0.0000 C   0  0  0  0  0  0  0  0  0  0  0  0
    1.6249    0.9522    0.0000 C   0  0  0  0  0  0  0  0  0  0  0  0
    2.7218   -1.4030    0.0000 C   0  0  0  0  0  0  0  0  0  0  0  0
    2.9847    1.5855    0.0000 C   0  0  0  0  0  0  0  0  0  0  0  0
    4.0816   -0.7697    0.0000 C   0  0  0  0  0  0  0  0  0  0  0  0
    4.2130    0.7246    0.0000 C   0  0  0  0  0  0  0  0  0  0  0  0
    0.1337   -1.1753    0.0000 C   0  0  0  0  0  0  0  0  0  0  0  0
   -3.6827   -0.0868    0.0000 C   0  0  0  0  0  0  0  0  0  0  0  0
    2.5904   -2.8972    0.0000 H   0  0  0  0  0  0  0  0  0  0  0  0
    3.1161    3.0797    0.0000 H   0  0  0  0  0  0  0  0  0  0  0  0
    5.3099   -1.6306    0.0000 H   0  0  0  0  0  0  0  0  0  0  0  0
    0.0023   -2.6696    0.0000 H   0  0  0  0  0  0  0  0  0  0  0  0
   -6.2708    0.1409    0.0000 H   0  0  0  0  0  0  0  0  0  0  0  0
   -5.1739   -2.2143    0.0000 H   0  0  0  0  0  0  0  0  0  0  0  0
   -4.7796    2.2684    0.0000 H   0  0  0  0  0  0  0  0  0  0  0  0
   -2.1915    2.0408    0.0000 H   0  0  0  0  0  0  0  0  0  0  0  0
  1  8  1  0
  2 12  1  0
  3  4  1  0
  3 13  2  0
  4 14  2  0
  5 14  1  0
  5 19  1  0
  5 20  1  0
  6 14  1  0
  6 21  1  0
  6 22  1  0
  7  8  2  0
  7  9  1  0
  7 13  1  0
  8 10  1  0
  9 11  2  0
  9 15  1  0
 10 12  2  0
 10 16  1  0
 11 12  1  0
 11 17  1  0
 13 18  1  0
M  STY  8   1 DAT   2 DAT   3 DAT   4 DAT   5 DAT   6 DAT   7 DAT   8 DAT
M  STY  8   9 DAT  10 DAT  11 DAT  12 DAT  13 DAT  14 DAT  15 DAT  16 DAT
M  STY  6  17 DAT  18 DAT  19 DAT  20 DAT  21 DAT  22 DAT
M  SAL   1  1   1
M  SED   1 [#17&h0]
M  SAL   2  1   2
M  SED   2 [#17&h0]
M  SAL   3  1   3
M  SED   3 [#7&h0]
M  SAL   4  1   4
M  SED   4 [#7&h0]
M  SAL   5  1   5
M  SED   5 [#7&h0]
M  SAL   6  1   6
M  SED   6 [#7&h0]
M  SAL   7  1   7
M  SED   7 [#6&h0]
M  SAL   8  1   8
M  SED   8 [#6&h0]
M  SAL   9  1   9
M  SED   9 [#6&h0]
M  SAL  10  1  10
M  SED  10 [#6&h0]
M  SAL  11  1  11
M  SED  11 [#6&h0]
M  SAL  12  1  12
M  SED  12 [#6&h0]
M  SAL  13  1  13
M  SED  13 [#6&h0]
M  SAL  14  1  14
M  SED  14 [#6&h0]
M  SAL  15  1  15
M  SED  15 [#1&h0]
M  SAL  16  1  16
M  SED  16 [#1&h0]
M  SAL  17  1  17
M  SED  17 [#1&h0]
M  SAL  18  1  18
M  SED  18 [#1&h0]
M  SAL  19  1  19
M  SED  19 [#1&h0]
M  SAL  20  1  20
M  SED  20 [#1&h0]
M  SAL  21  1  21
M  SED  21 [#1&h0]
M  SAL  22  1  22
M  SED  22 [#1&h0]
M  END
>  <Activity>  (167) 
0.01

>  <Mapped(file=2032.csv.activities,property=Cached(PUBCHEM_COMPOUND_CID))>  (167) 
100

>  <MatchIndices>  (167) 
28 

>  <PUBCHEM_ATOM_DEF_STEREO_COUNT>  (167) 
0

>  <PUBCHEM_ATOM_UDEF_STEREO_COUNT>  (167) 
0

>  <PUBCHEM_BONDANNOTATIONS>  (167) 
10  12  8
11  12  8
7  8  8
7  9  8
8  10  8
9  11  8

>  <PUBCHEM_BOND_DEF_STEREO_COUNT>  (167) 
1

>  <PUBCHEM_BOND_UDEF_STEREO_COUNT>  (167) 
0

>  <PUBCHEM_CACTVS_COMPLEXITY>  (167) 
238

>  <PUBCHEM_CACTVS_HBOND_ACCEPTOR>  (167) 
2

>  <PUBCHEM_CACTVS_HBOND_DONOR>  (167) 
2

>  <PUBCHEM_CACTVS_ROTATABLE_BOND>  (167) 
2

>  <PUBCHEM_CACTVS_SUBSKEYS>  (167) 
AAADccBzgAAGAAAAAAAAAAAAAAAAAAAAAAAwAAAAAAAAAAABAAAAHAIYAAAADALBGCQxAIBAAACgAjBjIAACAAAgBQAIiAAgApgIIKKBExCAIAAggAAIiAcAgAAOBAAAAACBAAAIAAAAAQIAAAAAAAAAAA==

>  <PUBCHEM_CACTVS_TAUTO_COUNT>  (167) 
2

>  <PUBCHEM_CACTVS_TPSA>  (167) 
76.8

>  <PUBCHEM_COMPONENT_COUNT>  (167) 
1

>  <PUBCHEM_COMPOUND_CANONICALIZED>  (167) 
1

>  <PUBCHEM_COMPOUND_CID>  (167) 
9556823

>  <PUBCHEM_COORDINATE_TYPE>  (167) 
1
5
255

>  <PUBCHEM_EXACT_MASS>  (167) 
230.012602

>  <PUBCHEM_HEAVY_ATOM_COUNT>  (167) 
14

>  <PUBCHEM_ISOTOPIC_ATOM_COUNT>  (167) 
0

>  <PUBCHEM_IUPAC_CAS_NAME>  (167) 
2-[(E)-(2,4-dichlorophenyl)methylideneamino]guanidine

>  <PUBCHEM_IUPAC_INCHI>  (167) 
InChI=1S/C8H8Cl2N4/c9-6-2-1-5(7(10)3-6)4-13-14-8(11)12/h1-4H,(H4,11,12,14)/b13-4+

>  <PUBCHEM_IUPAC_INCHIKEY>  (167) 
WDPPSRUIMSQVFX-YIXHJXPBSA-N

>  <PUBCHEM_IUPAC_NAME>  (167) 
2-[(E)-(2,4-dichlorophenyl)methylideneamino]guanidine

>  <PUBCHEM_IUPAC_OPENEYE_NAME>  (167) 
2-[(E)-(2,4-dichlorophenyl)methyleneamino]guanidine

>  <PUBCHEM_IUPAC_SYSTEMATIC_NAME>  (167) 
2-[(E)-(2,4-dichlorophenyl)methylideneamino]guanidine

>  <PUBCHEM_IUPAC_TRADITIONAL_NAME>  (167) 
2-[(E)-(2,4-dichlorobenzylidene)amino]guanidine

>  <PUBCHEM_MOLECULAR_FORMULA>  (167) 
C8H8Cl2N4

>  <PUBCHEM_MOLECULAR_WEIGHT>  (167) 
231.08192

>  <PUBCHEM_MONOISOTOPIC_WEIGHT>  (167) 
230.012602

>  <PUBCHEM_OPENEYE_CAN_SMILES>  (167) 
C1=CC(=C(C=C1Cl)Cl)C=NN=C(N)N

>  <PUBCHEM_OPENEYE_ISO_SMILES>  (167) 
C1=CC(=C(C=C1Cl)Cl)/C=N/N=C(N)N

>  <PUBCHEM_TOTAL_CHARGE>  (167) 
0

>  <PUBCHEM_XLOGP3_AA>  (167) 
1.7

$$$$
Largest isolated from Written by BCL::WriteToMDL,826733
     RDKit          2D

 33 34  0 33  0  0  0  0  0  0999 V2000
   -2.6366   -3.3610    0.0000 Cl  0  0  0  0  0  0  0  0  0  0  0  0
   -5.3924    1.9686    0.0000 Cl  0  0  0  0  0  0  0  0  0  0  0  0
   -1.0177   -0.8353    0.0000 S   0  0  0  0  0  0  0  0  0  0  0  0
    1.1696   -2.2373    0.0000 O   0  0  0  0  0  0  0  0  0  0  0  0
    3.4774   -1.0440    0.0000 N   0  0  0  0  0  0  0  0  0  0  0  0
    1.2901    0.3580    0.0000 C   0  0  0  0  0  0  0  0  0  0  0  0
   -0.2083    0.4276    0.0000 C   0  0  0  0  0  0  0  0  0  0  0  0
    1.9790   -0.9744    0.0000 C   0  0  0  0  0  0  0  0  0  0  0  0
    2.0995    1.6209    0.0000 C   0  0  0  0  0  0  0  0  0  0  0  0
   -0.8972    1.7600    0.0000 C   0  0  0  0  0  0  0  0  0  0  0  0
   -2.5161   -0.7657    0.0000 C   0  0  0  0  0  0  0  0  0  0  0  0
    1.4106    2.9533    0.0000 C   0  0  0  0  0  0  0  0  0  0  0  0
   -0.0878    3.0228    0.0000 C   0  0  0  0  0  0  0  0  0  0  0  0
    4.1664   -2.3764    0.0000 C   0  0  0  0  0  0  0  0  0  0  0  0
    4.2869    0.2189    0.0000 C   0  0  0  0  0  0  0  0  0  0  0  0
   -3.3255   -2.0286    0.0000 C   0  0  0  0  0  0  0  0  0  0  0  0
   -3.2051    0.5667    0.0000 C   0  0  0  0  0  0  0  0  0  0  0  0
   -4.7035    0.6362    0.0000 C   0  0  0  0  0  0  0  0  0  0  0  0
   -4.8239   -1.9591    0.0000 C   0  0  0  0  0  0  0  0  0  0  0  0
   -5.5129   -0.6266    0.0000 C   0  0  0  0  0  0  0  0  0  0  0  0
    2.9727    1.4722    0.0000 H   0  0  0  0  0  0  0  0  0  0  0  0
   -1.8674    1.9251    0.0000 H   0  0  0  0  0  0  0  0  0  0  0  0
    2.2200    4.2161    0.0000 H   0  0  0  0  0  0  0  0  0  0  0  0
   -0.7768    4.3553    0.0000 H   0  0  0  0  0  0  0  0  0  0  0  0
    5.5497   -0.5905    0.0000 H   0  0  0  0  0  0  0  0  0  0  0  0
    3.4885    0.6024    0.0000 H   0  0  0  0  0  0  0  0  0  0  0  0
    5.0963    1.4817    0.0000 H   0  0  0  0  0  0  0  0  0  0  0  0
    5.4988   -1.6874    0.0000 H   0  0  0  0  0  0  0  0  0  0  0  0
    2.8340   -3.0654    0.0000 H   0  0  0  0  0  0  0  0  0  0  0  0
    4.8553   -3.7088    0.0000 H   0  0  0  0  0  0  0  0  0  0  0  0
   -2.7790    1.4538    0.0000 H   0  0  0  0  0  0  0  0  0  0  0  0
   -5.6334   -3.2219    0.0000 H   0  0  0  0  0  0  0  0  0  0  0  0
   -7.0113   -0.5571    0.0000 H   0  0  0  0  0  0  0  0  0  0  0  0
  1 16  1  0
  2 18  1  0
  3  7  1  0
  3 11  1  0
  4  8  2  0
  5  8  1  0
  5 14  1  0
  5 15  1  0
  6  7  2  0
  6  8  1  0
  6  9  1  0
  7 10  1  0
  9 12  2  0
  9 21  1  0
 10 13  2  0
 10 22  1  0
 11 16  2  0
 11 17  1  0
 12 13  1  0
 12 23  1  0
 13 24  1  0
 14 28  1  0
 14 29  1  0
 14 30  1  0
 15 25  1  0
 15 26  1  0
 15 27  1  0
 16 19  1  0
 17 18  2  0
 17 31  1  0
 18 20  1  0
 19 20  2  0
 19 32  1  0
 20 33  1  0
M  STY  8   1 DAT   2 DAT   3 DAT   4 DAT   5 DAT   6 DAT   7 DAT   8 DAT
M  STY  8   9 DAT  10 DAT  11 DAT  12 DAT  13 DAT  14 DAT  15 DAT  16 DAT
M  STY  8  17 DAT  18 DAT  19 DAT  20 DAT  21 DAT  22 DAT  23 DAT  24 DAT
M  STY  8  25 DAT  26 DAT  27 DAT  28 DAT  29 DAT  30 DAT  31 DAT  32 DAT
M  STY  1  33 DAT
M  SAL   1  1   1
M  SED   1 [#17&h0]
M  SAL   2  1   2
M  SED   2 [#17&h0]
M  SAL   3  1   3
M  SED   3 [#16&h0]
M  SAL   4  1   4
M  SED   4 [#8&h0]
M  SAL   5  1   5
M  SED   5 [#7&h0]
M  SAL   6  1   6
M  SED   6 [#6&h0]
M  SAL   7  1   7
M  SED   7 [#6&h0]
M  SAL   8  1   8
M  SED   8 [#6&h0]
M  SAL   9  1   9
M  SED   9 [#6&h0]
M  SAL  10  1  10
M  SED  10 [#6&h0]
M  SAL  11  1  11
M  SED  11 [#6&h0]
M  SAL  12  1  12
M  SED  12 [#6&h0]
M  SAL  13  1  13
M  SED  13 [#6&h0]
M  SAL  14  1  14
M  SED  14 [#6&h0]
M  SAL  15  1  15
M  SED  15 [#6&h0]
M  SAL  16  1  16
M  SED  16 [#6&h0]
M  SAL  17  1  17
M  SED  17 [#6&h0]
M  SAL  18  1  18
M  SED  18 [#6&h0]
M  SAL  19  1  19
M  SED  19 [#6&h0]
M  SAL  20  1  20
M  SED  20 [#6&h0]
M  SAL  21  1  21
M  SED  21 [#1&h0]
M  SAL  22  1  22
M  SED  22 [#1&h0]
M  SAL  23  1  23
M  SED  23 [#1&h0]
M  SAL  24  1  24
M  SED  24 [#1&h0]
M  SAL  25  1  25
M  SED  25 [#1&h0]
M  SAL  26  1  26
M  SED  26 [#1&h0]
M  SAL  27  1  27
M  SED  27 [#1&h0]
M  SAL  28  1  28
M  SED  28 [#1&h0]
M  SAL  29  1  29
M  SED  29 [#1&h0]
M  SAL  30  1  30
M  SED  30 [#1&h0]
M  SAL  31  1  31
M  SED  31 [#1&h0]
M  SAL  32  1  32
M  SED  32 [#1&h0]
M  SAL  33  1  33
M  SED  33 [#1&h0]
M  END
>  <Activity>  (168) 
0.01

>  <Mapped(file=2032.csv.activities,property=Cached(PUBCHEM_COMPOUND_CID))>  (168) 
100

>  <MatchIndices>  (168) 
156 

>  <PUBCHEM_ATOM_DEF_STEREO_COUNT>  (168) 
0

>  <PUBCHEM_ATOM_UDEF_STEREO_COUNT>  (168) 
0

>  <PUBCHEM_BONDANNOTATIONS>  (168) 
10  13  8
11  16  8
11  17  8
12  13  8
16  19  8
17  18  8
18  20  8
19  20  8
6  7  8
6  9  8
7  10  8
9  12  8

>  <PUBCHEM_BOND_DEF_STEREO_COUNT>  (168) 
0

>  <PUBCHEM_BOND_UDEF_STEREO_COUNT>  (168) 
0

>  <PUBCHEM_CACTVS_COMPLEXITY>  (168) 
340

>  <PUBCHEM_CACTVS_HBOND_ACCEPTOR>  (168) 
2

>  <PUBCHEM_CACTVS_HBOND_DONOR>  (168) 
0

>  <PUBCHEM_CACTVS_ROTATABLE_BOND>  (168) 
3

>  <PUBCHEM_CACTVS_SUBSKEYS>  (168) 
AAADccByIABGAAAAAAAAAAAAAAAAAAAAAAAwYAAAAAAAAAABQAAAHgYAAAAADAKB2CQyAYMAAAiIAiFSEACCAAAkDRAIiBkIBsgIIDKhlxGEIQhgggAoiYcYiACOAAAQABAEAIAAACAAIAgBAAAAAAAAAA==

>  <PUBCHEM_CACTVS_TAUTO_COUNT>  (168) 
1

>  <PUBCHEM_CACTVS_TPSA>  (168) 
45.6

>  <PUBCHEM_COMPONENT_COUNT>  (168) 
1

>  <PUBCHEM_COMPOUND_CANONICALIZED>  (168) 
1

>  <PUBCHEM_COMPOUND_CID>  (168) 
826733

>  <PUBCHEM_COORDINATE_TYPE>  (168) 
1
5
255

>  <PUBCHEM_EXACT_MASS>  (168) 
325.00949

>  <PUBCHEM_HEAVY_ATOM_COUNT>  (168) 
20

>  <PUBCHEM_ISOTOPIC_ATOM_COUNT>  (168) 
0

>  <PUBCHEM_IUPAC_CAS_NAME>  (168) 
2-[(2,5-dichlorophenyl)thio]-N,N-dimethylbenzamide

>  <PUBCHEM_IUPAC_INCHI>  (168) 
InChI=1S/C15H13Cl2NOS/c1-18(2)15(19)11-5-3-4-6-13(11)20-14-9-10(16)7-8-12(14)17/h3-9H,1-2H3

>  <PUBCHEM_IUPAC_INCHIKEY>  (168) 
SWRGUCHXTIJVLZ-UHFFFAOYSA-N

>  <PUBCHEM_IUPAC_NAME>  (168) 
2-(2,5-dichlorophenyl)sulfanyl-N,N-dimethylbenzamide

>  <PUBCHEM_IUPAC_OPENEYE_NAME>  (168) 
2-(2,5-dichlorophenyl)sulfanyl-N,N-dimethyl-benzamide

>  <PUBCHEM_IUPAC_SYSTEMATIC_NAME>  (168) 
2-[2,5-bis(chloranyl)phenyl]sulfanyl-N,N-dimethyl-benzamide

>  <PUBCHEM_IUPAC_TRADITIONAL_NAME>  (168) 
2-[(2,5-dichlorophenyl)thio]-N,N-dimethyl-benzamide

>  <PUBCHEM_MOLECULAR_FORMULA>  (168) 
C15H13Cl2NOS

>  <PUBCHEM_MOLECULAR_WEIGHT>  (168) 
326.24082

>  <PUBCHEM_MONOISOTOPIC_WEIGHT>  (168) 
325.00949

>  <PUBCHEM_OPENEYE_CAN_SMILES>  (168) 
CN(C)C(=O)C1=CC=CC=C1SC2=C(C=CC(=C2)Cl)Cl

>  <PUBCHEM_OPENEYE_ISO_SMILES>  (168) 
CN(C)C(=O)C1=CC=CC=C1SC2=C(C=CC(=C2)Cl)Cl

>  <PUBCHEM_TOTAL_CHARGE>  (168) 
0

>  <PUBCHEM_XLOGP3_AA>  (168) 
4.7

$$$$
Largest isolated from Written by BCL::WriteToMDL,1045737
     RDKit          2D

 41 43  0 41  0  0  0  0  0  0999 V2000
   -0.2615   -1.7335    0.0000 S   0  0  0  0  0  0  0  0  0  0  0  0
    5.1839    0.2663    0.0000 O   0  0  0  0  0  0  0  0  0  0  0  0
   -3.2877    2.2667    0.0000 O   0  0  0  0  0  0  0  0  0  0  0  0
    3.2685   -1.4890    0.0000 O   0  0  0  0  0  0  0  0  0  0  0  0
    0.5936    2.2425    0.0000 N   0  0  0  0  0  0  0  0  0  0  0  0
    1.6995    3.2559    0.0000 N   0  0  0  0  0  0  0  0  0  0  0  0
    3.0051    2.5173    0.0000 N   0  0  0  0  0  0  0  0  0  0  0  0
   -1.9821    1.5281    0.0000 N   0  0  0  0  0  0  0  0  0  0  0  0
   -2.9887    3.7366    0.0000 N   0  0  0  0  0  0  0  0  0  0  0  0
   -0.7597    5.2120    0.0000 N   0  0  0  0  0  0  0  0  0  0  0  0
    1.2157    0.8776    0.0000 C   0  0  0  0  0  0  0  0  0  0  0  0
    0.4771   -0.4280    0.0000 C   0  0  0  0  0  0  0  0  0  0  0  0
    2.7061    1.0474    0.0000 C   0  0  0  0  0  0  0  0  0  0  0  0
   -0.8762    2.5415    0.0000 C   0  0  0  0  0  0  0  0  0  0  0  0
   -1.7614   -1.7467    0.0000 C   0  0  0  0  0  0  0  0  0  0  0  0
    3.7195   -0.0585    0.0000 C   0  0  0  0  0  0  0  0  0  0  0  0
   -2.5227   -0.4543    0.0000 C   0  0  0  0  0  0  0  0  0  0  0  0
   -2.5000   -3.0522    0.0000 C   0  0  0  0  0  0  0  0  0  0  0  0
   -4.7613   -1.7730    0.0000 C   0  0  0  0  0  0  0  0  0  0  0  0
   -1.4983    3.9064    0.0000 C   0  0  0  0  0  0  0  0  0  0  0  0
   -4.0227   -0.4674    0.0000 C   0  0  0  0  0  0  0  0  0  0  0  0
   -3.9999   -3.0654    0.0000 C   0  0  0  0  0  0  0  0  0  0  0  0
   -6.2612   -1.7861    0.0000 C   0  0  0  0  0  0  0  0  0  0  0  0
    6.1974   -0.8396    0.0000 C   0  0  0  0  0  0  0  0  0  0  0  0
    7.2108   -1.9455    0.0000 C   0  0  0  0  0  0  0  0  0  0  0  0
   -0.6979    0.2367    0.0000 H   0  0  0  0  0  0  0  0  0  0  0  0
    1.7827   -1.1666    0.0000 H   0  0  0  0  0  0  0  0  0  0  0  0
   -1.5934    0.5250    0.0000 H   0  0  0  0  0  0  0  0  0  0  0  0
   -1.7386   -4.3447    0.0000 H   0  0  0  0  0  0  0  0  0  0  0  0
   -4.7840    0.8250    0.0000 H   0  0  0  0  0  0  0  0  0  0  0  0
   -4.7385   -4.3709    0.0000 H   0  0  0  0  0  0  0  0  0  0  0  0
   -6.2744   -0.2862    0.0000 H   0  0  0  0  0  0  0  0  0  0  0  0
   -6.2481   -3.2860    0.0000 H   0  0  0  0  0  0  0  0  0  0  0  0
   -7.7612   -1.7992    0.0000 H   0  0  0  0  0  0  0  0  0  0  0  0
    7.3032    0.1738    0.0000 H   0  0  0  0  0  0  0  0  0  0  0  0
    5.0915   -1.8531    0.0000 H   0  0  0  0  0  0  0  0  0  0  0  0
   -1.5211    6.5044    0.0000 H   0  0  0  0  0  0  0  0  0  0  0  0
    0.7402    5.2251    0.0000 H   0  0  0  0  0  0  0  0  0  0  0  0
    6.1049   -2.9589    0.0000 H   0  0  0  0  0  0  0  0  0  0  0  0
    8.3167   -0.9321    0.0000 H   0  0  0  0  0  0  0  0  0  0  0  0
    8.2242   -3.0514    0.0000 H   0  0  0  0  0  0  0  0  0  0  0  0
  1 12  1  0
  1 15  1  0
  2 16  1  0
  2 24  1  0
  3  8  1  0
  3  9  1  0
  4 16  2  0
  5  6  1  0
  5 11  1  0
  5 14  1  0
  6  7  2  0
  7 13  1  0
  8 14  2  0
  9 20  2  0
 10 20  1  0
 10 37  1  0
 10 38  1  0
 11 12  1  0
 11 13  2  0
 12 26  1  0
 12 27  1  0
 13 16  1  0
 14 20  1  0
 15 17  2  0
 15 18  1  0
 17 21  1  0
 17 28  1  0
 18 22  2  0
 18 29  1  0
 19 21  2  0
 19 22  1  0
 19 23  1  0
 21 30  1  0
 22 31  1  0
 23 32  1  0
 23 33  1  0
 23 34  1  0
 24 25  1  0
 24 35  1  0
 24 36  1  0
 25 39  1  0
 25 40  1  0
 25 41  1  0
M  STY  8   1 DAT   2 DAT   3 DAT   4 DAT   5 DAT   6 DAT   7 DAT   8 DAT
M  STY  8   9 DAT  10 DAT  11 DAT  12 DAT  13 DAT  14 DAT  15 DAT  16 DAT
M  STY  8  17 DAT  18 DAT  19 DAT  20 DAT  21 DAT  22 DAT  23 DAT  24 DAT
M  STY  8  25 DAT  26 DAT  27 DAT  28 DAT  29 DAT  30 DAT  31 DAT  32 DAT
M  STY  8  33 DAT  34 DAT  35 DAT  36 DAT  37 DAT  38 DAT  39 DAT  40 DAT
M  STY  1  41 DAT
M  SAL   1  1   1
M  SED   1 [#16&h0]
M  SAL   2  1   2
M  SED   2 [#8&h0]
M  SAL   3  1   3
M  SED   3 [#8&h0]
M  SAL   4  1   4
M  SED   4 [#8&h0]
M  SAL   5  1   5
M  SED   5 [#7&h0]
M  SAL   6  1   6
M  SED   6 [#7&h0]
M  SAL   7  1   7
M  SED   7 [#7&h0]
M  SAL   8  1   8
M  SED   8 [#7&h0]
M  SAL   9  1   9
M  SED   9 [#7&h0]
M  SAL  10  1  10
M  SED  10 [#7&h0]
M  SAL  11  1  11
M  SED  11 [#6&h0]
M  SAL  12  1  12
M  SED  12 [#6&h0]
M  SAL  13  1  13
M  SED  13 [#6&h0]
M  SAL  14  1  14
M  SED  14 [#6&h0]
M  SAL  15  1  15
M  SED  15 [#6&h0]
M  SAL  16  1  16
M  SED  16 [#6&h0]
M  SAL  17  1  17
M  SED  17 [#6&h0]
M  SAL  18  1  18
M  SED  18 [#6&h0]
M  SAL  19  1  19
M  SED  19 [#6&h0]
M  SAL  20  1  20
M  SED  20 [#6&h0]
M  SAL  21  1  21
M  SED  21 [#6&h0]
M  SAL  22  1  22
M  SED  22 [#6&h0]
M  SAL  23  1  23
M  SED  23 [#6&h0]
M  SAL  24  1  24
M  SED  24 [#6&h0]
M  SAL  25  1  25
M  SED  25 [#6&h0]
M  SAL  26  1  26
M  SED  26 [#1&h0]
M  SAL  27  1  27
M  SED  27 [#1&h0]
M  SAL  28  1  28
M  SED  28 [#1&h0]
M  SAL  29  1  29
M  SED  29 [#1&h0]
M  SAL  30  1  30
M  SED  30 [#1&h0]
M  SAL  31  1  31
M  SED  31 [#1&h0]
M  SAL  32  1  32
M  SED  32 [#1&h0]
M  SAL  33  1  33
M  SED  33 [#1&h0]
M  SAL  34  1  34
M  SED  34 [#1&h0]
M  SAL  35  1  35
M  SED  35 [#1&h0]
M  SAL  36  1  36
M  SED  36 [#1&h0]
M  SAL  37  1  37
M  SED  37 [#1&h0]
M  SAL  38  1  38
M  SED  38 [#1&h0]
M  SAL  39  1  39
M  SED  39 [#1&h0]
M  SAL  40  1  40
M  SED  40 [#1&h0]
M  SAL  41  1  41
M  SED  41 [#1&h0]
M  END
>  <Activity>  (169) 
0.01

>  <Mapped(file=2032.csv.activities,property=Cached(PUBCHEM_COMPOUND_CID))>  (169) 
100

>  <MatchIndices>  (169) 
192 

>  <PUBCHEM_ATOM_DEF_STEREO_COUNT>  (169) 
0

>  <PUBCHEM_ATOM_UDEF_STEREO_COUNT>  (169) 
0

>  <PUBCHEM_BONDANNOTATIONS>  (169) 
11  13  8
14  20  8
15  17  8
15  18  8
17  21  8
18  22  8
19  21  8
19  22  8
3  8  8
3  9  8
5  11  8
5  6  8
6  7  8
7  13  8
8  14  8
9  20  8

>  <PUBCHEM_BOND_DEF_STEREO_COUNT>  (169) 
0

>  <PUBCHEM_BOND_UDEF_STEREO_COUNT>  (169) 
0

>  <PUBCHEM_CACTVS_COMPLEXITY>  (169) 
451

>  <PUBCHEM_CACTVS_HBOND_ACCEPTOR>  (169) 
8

>  <PUBCHEM_CACTVS_HBOND_DONOR>  (169) 
1

>  <PUBCHEM_CACTVS_ROTATABLE_BOND>  (169) 
7

>  <PUBCHEM_CACTVS_SUBSKEYS>  (169) 
AAADceBzsABAAAAAAAAAAAAAAAAAAWLAAAAwAAAAAAAAAAAB8AAAHgQcAAAADAil3gKzuZJYBAirAybybgQCBCQnGBA9mBmwWMqKZnrgORiXMYAmgILoqWcAgAAOEAAAAAAAAAAgAAAAAAAAAAAAAAAAAA==

>  <PUBCHEM_CACTVS_TAUTO_COUNT>  (169) 
2

>  <PUBCHEM_CACTVS_TPSA>  (169) 
147

>  <PUBCHEM_COMPONENT_COUNT>  (169) 
1

>  <PUBCHEM_COMPOUND_CANONICALIZED>  (169) 
1

>  <PUBCHEM_COMPOUND_CID>  (169) 
1045737

>  <PUBCHEM_COORDINATE_TYPE>  (169) 
1
5
255

>  <PUBCHEM_EXACT_MASS>  (169) 
360.100459

>  <PUBCHEM_HEAVY_ATOM_COUNT>  (169) 
25

>  <PUBCHEM_ISOTOPIC_ATOM_COUNT>  (169) 
0

>  <PUBCHEM_IUPAC_CAS_NAME>  (169) 
1-(4-amino-1,2,5-oxadiazol-3-yl)-5-[[(4-methylphenyl)thio]methyl]-4-triazolecarboxylic acid ethyl ester

>  <PUBCHEM_IUPAC_INCHI>  (169) 
InChI=1S/C15H16N6O3S/c1-3-23-15(22)12-11(8-25-10-6-4-9(2)5-7-10)21(20-17-12)14-13(16)18-24-19-14/h4-7H,3,8H2,1-2H3,(H2,16,18)

>  <PUBCHEM_IUPAC_INCHIKEY>  (169) 
YABICWGRDOCOPQ-UHFFFAOYSA-N

>  <PUBCHEM_IUPAC_NAME>  (169) 
ethyl 1-(4-amino-1,2,5-oxadiazol-3-yl)-5-[(4-methylphenyl)sulfanylmethyl]triazole-4-carboxylate

>  <PUBCHEM_IUPAC_OPENEYE_NAME>  (169) 
ethyl 1-(4-amino-1,2,5-oxadiazol-3-yl)-5-(p-tolylsulfanylmethyl)triazole-4-carboxylate

>  <PUBCHEM_IUPAC_SYSTEMATIC_NAME>  (169) 
ethyl 1-(4-azanyl-1,2,5-oxadiazol-3-yl)-5-[(4-methylphenyl)sulfanylmethyl]-1,2,3-triazole-4-carboxylate

>  <PUBCHEM_IUPAC_TRADITIONAL_NAME>  (169) 
1-(4-aminofurazan-3-yl)-5-[(p-tolylthio)methyl]triazole-4-carboxylic acid ethyl ester

>  <PUBCHEM_MOLECULAR_FORMULA>  (169) 
C15H16N6O3S

>  <PUBCHEM_MOLECULAR_WEIGHT>  (169) 
360.39094

>  <PUBCHEM_MONOISOTOPIC_WEIGHT>  (169) 
360.100459

>  <PUBCHEM_OPENEYE_CAN_SMILES>  (169) 
CCOC(=O)C1=C(N(N=N1)C2=NON=C2N)CSC3=CC=C(C=C3)C

>  <PUBCHEM_OPENEYE_ISO_SMILES>  (169) 
CCOC(=O)C1=C(N(N=N1)C2=NON=C2N)CSC3=CC=C(C=C3)C

>  <PUBCHEM_TOTAL_CHARGE>  (169) 
0

>  <PUBCHEM_XLOGP3_AA>  (169) 
2.1

$$$$
Largest isolated from Written by BCL::WriteToMDL,2924404
     RDKit          2D

 50 51  0 50  0  0  0  0  0  0999 V2000
    1.6746    2.3358    0.0000 O   0  0  0  0  0  0  0  0  0  0  0  0
   10.5458    0.2025    0.0000 O   0  0  0  0  0  0  0  0  0  0  0  0
    6.3502   -1.4243    0.0000 N   0  0  0  0  0  0  0  0  0  0  0  0
   -3.9196    0.1667    0.0000 C   0  0  0  0  0  0  0  0  0  0  0  0
   -2.5210    0.7090    0.0000 C   0  0  0  0  0  0  0  0  0  0  0  0
   -5.3181   -0.3755    0.0000 C   0  0  0  0  0  0  0  0  0  0  0  0
   -4.4619    1.5653    0.0000 C   0  0  0  0  0  0  0  0  0  0  0  0
   -3.3773   -1.2318    0.0000 C   0  0  0  0  0  0  0  0  0  0  0  0
   -1.3522   -0.2310    0.0000 C   0  0  0  0  0  0  0  0  0  0  0  0
   -2.2914    2.1913    0.0000 C   0  0  0  0  0  0  0  0  0  0  0  0
   -6.4870    0.5645    0.0000 C   0  0  0  0  0  0  0  0  0  0  0  0
   -5.5478   -1.8578    0.0000 C   0  0  0  0  0  0  0  0  0  0  0  0
    0.0464    0.3112    0.0000 C   0  0  0  0  0  0  0  0  0  0  0  0
   -0.8928    2.7336    0.0000 C   0  0  0  0  0  0  0  0  0  0  0  0
    0.2760    1.7936    0.0000 C   0  0  0  0  0  0  0  0  0  0  0  0
   -7.8856    0.0222    0.0000 C   0  0  0  0  0  0  0  0  0  0  0  0
   -6.9463   -2.4001    0.0000 C   0  0  0  0  0  0  0  0  0  0  0  0
    4.0124    0.4557    0.0000 C   0  0  0  0  0  0  0  0  0  0  0  0
    2.8435    1.3958    0.0000 C   0  0  0  0  0  0  0  0  0  0  0  0
   -8.1152   -1.4601    0.0000 C   0  0  0  0  0  0  0  0  0  0  0  0
    5.1813   -0.4843    0.0000 C   0  0  0  0  0  0  0  0  0  0  0  0
    7.7487   -0.8821    0.0000 C   0  0  0  0  0  0  0  0  0  0  0  0
    9.1473   -0.3398    0.0000 C   0  0  0  0  0  0  0  0  0  0  0  0
   -3.7381    2.0758    0.0000 H   0  0  0  0  0  0  0  0  0  0  0  0
   -5.3406    1.4544    0.0000 H   0  0  0  0  0  0  0  0  0  0  0  0
   -5.0041    2.9638    0.0000 H   0  0  0  0  0  0  0  0  0  0  0  0
   -4.6031   -2.0964    0.0000 H   0  0  0  0  0  0  0  0  0  0  0  0
   -2.4986   -1.1209    0.0000 H   0  0  0  0  0  0  0  0  0  0  0  0
   -2.8351   -2.6304    0.0000 H   0  0  0  0  0  0  0  0  0  0  0  0
   -1.4878   -1.1063    0.0000 H   0  0  0  0  0  0  0  0  0  0  0  0
   -2.9816    2.7464    0.0000 H   0  0  0  0  0  0  0  0  0  0  0  0
   -6.3514    1.4398    0.0000 H   0  0  0  0  0  0  0  0  0  0  0  0
   -4.3789   -2.7979    0.0000 H   0  0  0  0  0  0  0  0  0  0  0  0
    1.2153   -0.6288    0.0000 H   0  0  0  0  0  0  0  0  0  0  0  0
   -0.6632    4.2159    0.0000 H   0  0  0  0  0  0  0  0  0  0  0  0
   -9.0545    0.9623    0.0000 H   0  0  0  0  0  0  0  0  0  0  0  0
   -7.1760   -3.8824    0.0000 H   0  0  0  0  0  0  0  0  0  0  0  0
    3.0723   -0.7131    0.0000 H   0  0  0  0  0  0  0  0  0  0  0  0
    4.9524    1.6246    0.0000 H   0  0  0  0  0  0  0  0  0  0  0  0
    3.7835    2.5647    0.0000 H   0  0  0  0  0  0  0  0  0  0  0  0
    1.9035    0.2269    0.0000 H   0  0  0  0  0  0  0  0  0  0  0  0
   -9.5138   -2.0024    0.0000 H   0  0  0  0  0  0  0  0  0  0  0  0
    4.2412   -1.6532    0.0000 H   0  0  0  0  0  0  0  0  0  0  0  0
    6.1213    0.6846    0.0000 H   0  0  0  0  0  0  0  0  0  0  0  0
    6.1205   -2.9067    0.0000 H   0  0  0  0  0  0  0  0  0  0  0  0
    8.2910   -2.2806    0.0000 H   0  0  0  0  0  0  0  0  0  0  0  0
    7.2065    0.5165    0.0000 H   0  0  0  0  0  0  0  0  0  0  0  0
    9.6896   -1.7383    0.0000 H   0  0  0  0  0  0  0  0  0  0  0  0
    8.6050    1.0588    0.0000 H   0  0  0  0  0  0  0  0  0  0  0  0
   11.7147   -0.7376    0.0000 H   0  0  0  0  0  0  0  0  0  0  0  0
  1 15  1  0
  1 19  1  0
  2 23  1  0
  2 50  1  0
  3 21  1  0
  3 22  1  0
  3 45  1  0
  4  5  1  0
  4  6  1  0
  4  7  1  0
  4  8  1  0
  5  9  2  0
  5 10  1  0
  6 11  2  0
  6 12  1  0
  7 24  1  0
  7 25  1  0
  7 26  1  0
  8 27  1  0
  8 28  1  0
  8 29  1  0
  9 13  1  0
  9 30  1  0
 10 14  2  0
 10 31  1  0
 11 16  1  0
 11 32  1  0
 12 17  2  0
 12 33  1  0
 13 15  2  0
 13 34  1  0
 14 15  1  0
 14 35  1  0
 16 20  2  0
 16 36  1  0
 17 20  1  0
 17 37  1  0
 18 19  1  0
 18 21  1  0
 18 38  1  0
 18 39  1  0
 19 40  1  0
 19 41  1  0
 20 42  1  0
 21 43  1  0
 21 44  1  0
 22 23  1  0
 22 46  1  0
 22 47  1  0
 23 48  1  0
 23 49  1  0
M  STY  8   1 DAT   2 DAT   3 DAT   4 DAT   5 DAT   6 DAT   7 DAT   8 DAT
M  STY  8   9 DAT  10 DAT  11 DAT  12 DAT  13 DAT  14 DAT  15 DAT  16 DAT
M  STY  8  17 DAT  18 DAT  19 DAT  20 DAT  21 DAT  22 DAT  23 DAT  24 DAT
M  STY  8  25 DAT  26 DAT  27 DAT  28 DAT  29 DAT  30 DAT  31 DAT  32 DAT
M  STY  8  33 DAT  34 DAT  35 DAT  36 DAT  37 DAT  38 DAT  39 DAT  40 DAT
M  STY  8  41 DAT  42 DAT  43 DAT  44 DAT  45 DAT  46 DAT  47 DAT  48 DAT
M  STY  2  49 DAT  50 DAT
M  SAL   1  1   1
M  SED   1 [#8&h0]
M  SAL   2  1   2
M  SED   2 [#8&h0]
M  SAL   3  1   3
M  SED   3 [#7&h0]
M  SAL   4  1   4
M  SED   4 [#6&h0]
M  SAL   5  1   5
M  SED   5 [#6&h0]
M  SAL   6  1   6
M  SED   6 [#6&h0]
M  SAL   7  1   7
M  SED   7 [#6&h0]
M  SAL   8  1   8
M  SED   8 [#6&h0]
M  SAL   9  1   9
M  SED   9 [#6&h0]
M  SAL  10  1  10
M  SED  10 [#6&h0]
M  SAL  11  1  11
M  SED  11 [#6&h0]
M  SAL  12  1  12
M  SED  12 [#6&h0]
M  SAL  13  1  13
M  SED  13 [#6&h0]
M  SAL  14  1  14
M  SED  14 [#6&h0]
M  SAL  15  1  15
M  SED  15 [#6&h0]
M  SAL  16  1  16
M  SED  16 [#6&h0]
M  SAL  17  1  17
M  SED  17 [#6&h0]
M  SAL  18  1  18
M  SED  18 [#6&h0]
M  SAL  19  1  19
M  SED  19 [#6&h0]
M  SAL  20  1  20
M  SED  20 [#6&h0]
M  SAL  21  1  21
M  SED  21 [#6&h0]
M  SAL  22  1  22
M  SED  22 [#6&h0]
M  SAL  23  1  23
M  SED  23 [#6&h0]
M  SAL  24  1  24
M  SED  24 [#1&h0]
M  SAL  25  1  25
M  SED  25 [#1&h0]
M  SAL  26  1  26
M  SED  26 [#1&h0]
M  SAL  27  1  27
M  SED  27 [#1&h0]
M  SAL  28  1  28
M  SED  28 [#1&h0]
M  SAL  29  1  29
M  SED  29 [#1&h0]
M  SAL  30  1  30
M  SED  30 [#1&h0]
M  SAL  31  1  31
M  SED  31 [#1&h0]
M  SAL  32  1  32
M  SED  32 [#1&h0]
M  SAL  33  1  33
M  SED  33 [#1&h0]
M  SAL  34  1  34
M  SED  34 [#1&h0]
M  SAL  35  1  35
M  SED  35 [#1&h0]
M  SAL  36  1  36
M  SED  36 [#1&h0]
M  SAL  37  1  37
M  SED  37 [#1&h0]
M  SAL  38  1  38
M  SED  38 [#1&h0]
M  SAL  39  1  39
M  SED  39 [#1&h0]
M  SAL  40  1  40
M  SED  40 [#1&h0]
M  SAL  41  1  41
M  SED  41 [#1&h0]
M  SAL  42  1  42
M  SED  42 [#1&h0]
M  SAL  43  1  43
M  SED  43 [#1&h0]
M  SAL  44  1  44
M  SED  44 [#1&h0]
M  SAL  45  1  45
M  SED  45 [#1&h0]
M  SAL  46  1  46
M  SED  46 [#1&h0]
M  SAL  47  1  47
M  SED  47 [#1&h0]
M  SAL  48  1  48
M  SED  48 [#1&h0]
M  SAL  49  1  49
M  SED  49 [#1&h0]
M  SAL  50  1  50
M  SED  50 [#1&h0]
M  END
>  <Activity>  (170) 
0.01

>  <Mapped(file=2032.csv.activities,property=Cached(PUBCHEM_COMPOUND_CID))>  (170) 
100

>  <MatchIndices>  (170) 
35 

>  <PUBCHEM_ATOM_DEF_STEREO_COUNT>  (170) 
0

>  <PUBCHEM_ATOM_UDEF_STEREO_COUNT>  (170) 
0

>  <PUBCHEM_BONDANNOTATIONS>  (170) 
10  15  8
10  16  8
13  17  8
14  18  8
15  20  8
16  21  8
17  19  8
18  19  8
20  24  8
21  24  8
9  13  8
9  14  8

>  <PUBCHEM_BOND_DEF_STEREO_COUNT>  (170) 
0

>  <PUBCHEM_BOND_UDEF_STEREO_COUNT>  (170) 
0

>  <PUBCHEM_CACTVS_COMPLEXITY>  (170) 
376

>  <PUBCHEM_CACTVS_HBOND_ACCEPTOR>  (170) 
7

>  <PUBCHEM_CACTVS_HBOND_DONOR>  (170) 
4

>  <PUBCHEM_CACTVS_ROTATABLE_BOND>  (170) 
10

>  <PUBCHEM_CACTVS_SUBSKEYS>  (170) 
AAADceB6OAAAAAAAAAAAAAAAAAAAAAAAAAAwYAAAAAAAAAABQAAAHgAQCAAADgThmAYyDoLABgCIAiDSCAICCAAgIAAIiIBOCIgPNiKEMRqGOCCm0BGZqAeAwPAPoAAAAAAAAABAAAAAAAAAAAAAAAAAAA==

>  <PUBCHEM_CACTVS_TAUTO_COUNT>  (170) 
1

>  <PUBCHEM_CACTVS_TPSA>  (170) 
116

>  <PUBCHEM_COMPONENT_COUNT>  (170) 
2

>  <PUBCHEM_COMPOUND_CANONICALIZED>  (170) 
1

>  <PUBCHEM_COMPOUND_CID>  (170) 
2924404

>  <PUBCHEM_COORDINATE_TYPE>  (170) 
1
5
255

>  <PUBCHEM_EXACT_MASS>  (170) 
403.199488

>  <PUBCHEM_HEAVY_ATOM_COUNT>  (170) 
29

>  <PUBCHEM_ISOTOPIC_ATOM_COUNT>  (170) 
0

>  <PUBCHEM_IUPAC_CAS_NAME>  (170) 
oxalic acid; 2-[3-[4-(2-phenylpropan-2-yl)phenoxy]propylamino]ethanol

>  <PUBCHEM_IUPAC_INCHI>  (170) 
InChI=1S/C20H27NO2.C2H2O4/c1-20(2,17-7-4-3-5-8-17)18-9-11-19(12-10-18)23-16-6-13-21-14-15-22;3-1(4)2(5)6/h3-5,7-12,21-22H,6,13-16H2,1-2H3;(H,3,4)(H,5,6)

>  <PUBCHEM_IUPAC_INCHIKEY>  (170) 
HPXUDIALYYMYIT-UHFFFAOYSA-N

>  <PUBCHEM_IUPAC_NAME>  (170) 
oxalic acid; 2-[3-[4-(2-phenylpropan-2-yl)phenoxy]propylamino]ethanol

>  <PUBCHEM_IUPAC_OPENEYE_NAME>  (170) 
2-[3-[4-(1-methyl-1-phenyl-ethyl)phenoxy]propylamino]ethanol; oxalic acid

>  <PUBCHEM_IUPAC_SYSTEMATIC_NAME>  (170) 
ethanedioic acid; 2-[3-[4-(2-phenylpropan-2-yl)phenoxy]propylamino]ethanol

>  <PUBCHEM_IUPAC_TRADITIONAL_NAME>  (170) 
2-[3-(4-cumylphenoxy)propylamino]ethanol; oxalic acid

>  <PUBCHEM_MOLECULAR_FORMULA>  (170) 
C22H29NO6

>  <PUBCHEM_MOLECULAR_WEIGHT>  (170) 
403.46876

>  <PUBCHEM_MONOISOTOPIC_WEIGHT>  (170) 
403.199488

>  <PUBCHEM_OPENEYE_CAN_SMILES>  (170) 
CC(C)(C1=CC=CC=C1)C2=CC=C(C=C2)OCCCNCCO.C(=O)(C(=O)O)O

>  <PUBCHEM_OPENEYE_ISO_SMILES>  (170) 
CC(C)(C1=CC=CC=C1)C2=CC=C(C=C2)OCCCNCCO.C(=O)(C(=O)O)O

>  <PUBCHEM_TOTAL_CHARGE>  (170) 
0

$$$$
Largest isolated from Written by BCL::WriteToMDL,892591
     RDKit          2D

 42 43  0 42  0  0  0  0  0  0999 V2000
    5.4628    2.9108    0.0000 Br  0  0  0  0  0  0  0  0  0  0  0  0
   -0.6038    0.4723    0.0000 O   0  0  0  0  0  0  0  0  0  0  0  0
    0.0550    2.9855    0.0000 O   0  0  0  0  0  0  0  0  0  0  0  0
   -4.7667   -0.4300    0.0000 N   0  0  0  0  0  0  0  0  0  0  0  0
   -2.0547    0.8526    0.0000 C   0  0  0  0  0  0  0  0  0  0  0  0
   -3.2881    1.7063    0.0000 C   0  0  0  0  0  0  0  0  0  0  0  0
   -2.1774   -0.6423    0.0000 C   0  0  0  0  0  0  0  0  0  0  0  0
   -4.6441    1.0650    0.0000 C   0  0  0  0  0  0  0  0  0  0  0  0
   -3.5334   -1.2836    0.0000 C   0  0  0  0  0  0  0  0  0  0  0  0
   -6.1227   -1.0713    0.0000 C   0  0  0  0  0  0  0  0  0  0  0  0
    0.4511    1.5387    0.0000 C   0  0  0  0  0  0  0  0  0  0  0  0
    1.9021    1.1583    0.0000 C   0  0  0  0  0  0  0  0  0  0  0  0
    2.2982   -0.2884    0.0000 C   0  0  0  0  0  0  0  0  0  0  0  0
    3.7492   -0.6688    0.0000 C   0  0  0  0  0  0  0  0  0  0  0  0
    4.8040    0.3976    0.0000 C   0  0  0  0  0  0  0  0  0  0  0  0
    2.9570    2.2247    0.0000 C   0  0  0  0  0  0  0  0  0  0  0  0
    4.4080    1.8444    0.0000 C   0  0  0  0  0  0  0  0  0  0  0  0
    1.2433   -1.3548    0.0000 C   0  0  0  0  0  0  0  0  0  0  0  0
    4.1453   -2.1155    0.0000 C   0  0  0  0  0  0  0  0  0  0  0  0
    6.2550    0.0173    0.0000 C   0  0  0  0  0  0  0  0  0  0  0  0
   -1.4282    2.2155    0.0000 H   0  0  0  0  0  0  0  0  0  0  0  0
   -4.1551    2.9304    0.0000 H   0  0  0  0  0  0  0  0  0  0  0  0
   -2.2332    2.7727    0.0000 H   0  0  0  0  0  0  0  0  0  0  0  0
   -0.9903   -0.3832    0.0000 H   0  0  0  0  0  0  0  0  0  0  0  0
   -1.7813   -2.0891    0.0000 H   0  0  0  0  0  0  0  0  0  0  0  0
   -6.1435    1.1093    0.0000 H   0  0  0  0  0  0  0  0  0  0  0  0
   -5.0402    2.5118    0.0000 H   0  0  0  0  0  0  0  0  0  0  0  0
   -2.6663   -2.5077    0.0000 H   0  0  0  0  0  0  0  0  0  0  0  0
   -4.4504   -2.4707    0.0000 H   0  0  0  0  0  0  0  0  0  0  0  0
   -6.9245    0.1964    0.0000 H   0  0  0  0  0  0  0  0  0  0  0  0
   -5.6515   -2.4953    0.0000 H   0  0  0  0  0  0  0  0  0  0  0  0
   -7.4787   -1.7126    0.0000 H   0  0  0  0  0  0  0  0  0  0  0  0
    2.5609    3.6715    0.0000 H   0  0  0  0  0  0  0  0  0  0  0  0
    1.9965   -2.3082    0.0000 H   0  0  0  0  0  0  0  0  0  0  0  0
    0.3134   -0.1778    0.0000 H   0  0  0  0  0  0  0  0  0  0  0  0
    0.1884   -2.4212    0.0000 H   0  0  0  0  0  0  0  0  0  0  0  0
    5.3475   -1.9399    0.0000 H   0  0  0  0  0  0  0  0  0  0  0  0
    3.0212   -2.5768    0.0000 H   0  0  0  0  0  0  0  0  0  0  0  0
    4.5414   -3.5623    0.0000 H   0  0  0  0  0  0  0  0  0  0  0  0
    6.6354    1.4683    0.0000 H   0  0  0  0  0  0  0  0  0  0  0  0
    6.0925   -1.1868    0.0000 H   0  0  0  0  0  0  0  0  0  0  0  0
    7.7060   -0.3631    0.0000 H   0  0  0  0  0  0  0  0  0  0  0  0
  1 17  1  0
  2  5  1  0
  2 11  1  0
  3 11  2  0
  4  8  1  0
  4  9  1  0
  4 10  1  0
  5  6  1  0
  5  7  1  0
  5 21  1  0
  6  8  1  0
  6 22  1  0
  6 23  1  0
  7  9  1  0
  7 24  1  0
  7 25  1  0
  8 26  1  0
  8 27  1  0
  9 28  1  0
  9 29  1  0
 10 30  1  0
 10 31  1  0
 10 32  1  0
 11 12  1  0
 12 13  2  0
 12 16  1  0
 13 14  1  0
 13 18  1  0
 14 15  2  0
 14 19  1  0
 15 17  1  0
 15 20  1  0
 16 17  2  0
 16 33  1  0
 18 34  1  0
 18 35  1  0
 18 36  1  0
 19 37  1  0
 19 38  1  0
 19 39  1  0
 20 40  1  0
 20 41  1  0
 20 42  1  0
M  STY  8   1 DAT   2 DAT   3 DAT   4 DAT   5 DAT   6 DAT   7 DAT   8 DAT
M  STY  8   9 DAT  10 DAT  11 DAT  12 DAT  13 DAT  14 DAT  15 DAT  16 DAT
M  STY  8  17 DAT  18 DAT  19 DAT  20 DAT  21 DAT  22 DAT  23 DAT  24 DAT
M  STY  8  25 DAT  26 DAT  27 DAT  28 DAT  29 DAT  30 DAT  31 DAT  32 DAT
M  STY  8  33 DAT  34 DAT  35 DAT  36 DAT  37 DAT  38 DAT  39 DAT  40 DAT
M  STY  2  41 DAT  42 DAT
M  SAL   1  1   1
M  SED   1 [#35&h0]
M  SAL   2  1   2
M  SED   2 [#8&h0]
M  SAL   3  1   3
M  SED   3 [#8&h0]
M  SAL   4  1   4
M  SED   4 [#7&h0]
M  SAL   5  1   5
M  SED   5 [#6&h0]
M  SAL   6  1   6
M  SED   6 [#6&h0]
M  SAL   7  1   7
M  SED   7 [#6&h0]
M  SAL   8  1   8
M  SED   8 [#6&h0]
M  SAL   9  1   9
M  SED   9 [#6&h0]
M  SAL  10  1  10
M  SED  10 [#6&h0]
M  SAL  11  1  11
M  SED  11 [#6&h0]
M  SAL  12  1  12
M  SED  12 [#6&h0]
M  SAL  13  1  13
M  SED  13 [#6&h0]
M  SAL  14  1  14
M  SED  14 [#6&h0]
M  SAL  15  1  15
M  SED  15 [#6&h0]
M  SAL  16  1  16
M  SED  16 [#6&h0]
M  SAL  17  1  17
M  SED  17 [#6&h0]
M  SAL  18  1  18
M  SED  18 [#6&h0]
M  SAL  19  1  19
M  SED  19 [#6&h0]
M  SAL  20  1  20
M  SED  20 [#6&h0]
M  SAL  21  1  21
M  SED  21 [#1&h0]
M  SAL  22  1  22
M  SED  22 [#1&h0]
M  SAL  23  1  23
M  SED  23 [#1&h0]
M  SAL  24  1  24
M  SED  24 [#1&h0]
M  SAL  25  1  25
M  SED  25 [#1&h0]
M  SAL  26  1  26
M  SED  26 [#1&h0]
M  SAL  27  1  27
M  SED  27 [#1&h0]
M  SAL  28  1  28
M  SED  28 [#1&h0]
M  SAL  29  1  29
M  SED  29 [#1&h0]
M  SAL  30  1  30
M  SED  30 [#1&h0]
M  SAL  31  1  31
M  SED  31 [#1&h0]
M  SAL  32  1  32
M  SED  32 [#1&h0]
M  SAL  33  1  33
M  SED  33 [#1&h0]
M  SAL  34  1  34
M  SED  34 [#1&h0]
M  SAL  35  1  35
M  SED  35 [#1&h0]
M  SAL  36  1  36
M  SED  36 [#1&h0]
M  SAL  37  1  37
M  SED  37 [#1&h0]
M  SAL  38  1  38
M  SED  38 [#1&h0]
M  SAL  39  1  39
M  SED  39 [#1&h0]
M  SAL  40  1  40
M  SED  40 [#1&h0]
M  SAL  41  1  41
M  SED  41 [#1&h0]
M  SAL  42  1  42
M  SED  42 [#1&h0]
M  END
>  <Activity>  (171) 
0.01

>  <Mapped(file=2032.csv.activities,property=Cached(PUBCHEM_COMPOUND_CID))>  (171) 
100

>  <MatchIndices>  (171) 
66 

>  <PUBCHEM_ATOM_DEF_STEREO_COUNT>  (171) 
0

>  <PUBCHEM_ATOM_UDEF_STEREO_COUNT>  (171) 
0

>  <PUBCHEM_BONDANNOTATIONS>  (171) 
12  13  8
12  16  8
13  14  8
14  15  8
15  17  8
16  17  8

>  <PUBCHEM_BOND_DEF_STEREO_COUNT>  (171) 
0

>  <PUBCHEM_BOND_UDEF_STEREO_COUNT>  (171) 
0

>  <PUBCHEM_CACTVS_COMPLEXITY>  (171) 
341

>  <PUBCHEM_CACTVS_HBOND_ACCEPTOR>  (171) 
3

>  <PUBCHEM_CACTVS_HBOND_DONOR>  (171) 
0

>  <PUBCHEM_CACTVS_ROTATABLE_BOND>  (171) 
3

>  <PUBCHEM_CACTVS_SUBSKEYS>  (171) 
AAADceB6MAAAEAAAAAAAAAAAAAAAAAAAAAA8QAAAAAAAAAABAAAAHgBAAAABrBThmAYyCIMABACIAiDSCAACAAAkAAQAiAEICOgIJjKAtBiGMQAmwAGIq5eYyPCOwgACEAAQgACEAAQgACEAAAAAAAAAAA==

>  <PUBCHEM_CACTVS_TAUTO_COUNT>  (171) 
3

>  <PUBCHEM_CACTVS_TPSA>  (171) 
29.5

>  <PUBCHEM_COMPONENT_COUNT>  (171) 
1

>  <PUBCHEM_COMPOUND_CANONICALIZED>  (171) 
1

>  <PUBCHEM_COMPOUND_CID>  (171) 
892591

>  <PUBCHEM_COORDINATE_TYPE>  (171) 
1
5
255

>  <PUBCHEM_EXACT_MASS>  (171) 
339.083391

>  <PUBCHEM_HEAVY_ATOM_COUNT>  (171) 
20

>  <PUBCHEM_ISOTOPIC_ATOM_COUNT>  (171) 
0

>  <PUBCHEM_IUPAC_CAS_NAME>  (171) 
5-bromo-2,3,4-trimethylbenzoic acid (1-methyl-4-piperidinyl) ester

>  <PUBCHEM_IUPAC_INCHI>  (171) 
InChI=1S/C16H22BrNO2/c1-10-11(2)14(9-15(17)12(10)3)16(19)20-13-5-7-18(4)8-6-13/h9,13H,5-8H2,1-4H3

>  <PUBCHEM_IUPAC_INCHIKEY>  (171) 
BCEAOWDUQRYWIV-UHFFFAOYSA-N

>  <PUBCHEM_IUPAC_NAME>  (171) 
(1-methylpiperidin-4-yl) 5-bromo-2,3,4-trimethylbenzoate

>  <PUBCHEM_IUPAC_OPENEYE_NAME>  (171) 
(1-methyl-4-piperidyl) 5-bromo-2,3,4-trimethyl-benzoate

>  <PUBCHEM_IUPAC_SYSTEMATIC_NAME>  (171) 
(1-methylpiperidin-4-yl) 5-bromanyl-2,3,4-trimethyl-benzoate

>  <PUBCHEM_IUPAC_TRADITIONAL_NAME>  (171) 
5-bromo-2,3,4-trimethyl-benzoic acid (1-methyl-4-piperidyl) ester

>  <PUBCHEM_MOLECULAR_FORMULA>  (171) 
C16H22BrNO2

>  <PUBCHEM_MOLECULAR_WEIGHT>  (171) 
340.25538

>  <PUBCHEM_MONOISOTOPIC_WEIGHT>  (171) 
339.083391

>  <PUBCHEM_OPENEYE_CAN_SMILES>  (171) 
CC1=C(C(=CC(=C1C)Br)C(=O)OC2CCN(CC2)C)C

>  <PUBCHEM_OPENEYE_ISO_SMILES>  (171) 
CC1=C(C(=CC(=C1C)Br)C(=O)OC2CCN(CC2)C)C

>  <PUBCHEM_TOTAL_CHARGE>  (171) 
0

>  <PUBCHEM_XLOGP3_AA>  (171) 
4.2

$$$$
Largest isolated from Written by BCL::WriteToMDL,17452193
     RDKit          2D

 49 51  0 49  0  0  0  0  0  0999 V2000
    1.7277    0.1058    0.0000 O   0  0  0  0  0  0  0  0  0  0  0  0
    4.9619   -2.2732    0.0000 O   0  0  0  0  0  0  0  0  0  0  0  0
   -4.1145    1.5173    0.0000 O   0  0  0  0  0  0  0  0  0  0  0  0
   -6.2387   -0.6011    0.0000 O   0  0  0  0  0  0  0  0  0  0  0  0
    2.4515   -2.9423    0.0000 N   0  0  0  0  0  0  0  0  0  0  0  0
    1.0031   -2.5521    0.0000 C   0  0  0  0  0  0  0  0  0  0  0  0
   -0.4452   -2.1619    0.0000 C   0  0  0  0  0  0  0  0  0  0  0  0
    3.1273   -0.4336    0.0000 C   0  0  0  0  0  0  0  0  0  0  0  0
    4.0729    0.7308    0.0000 C   0  0  0  0  0  0  0  0  0  0  0  0
   -1.8936   -1.7717    0.0000 C   0  0  0  0  0  0  0  0  0  0  0  0
    3.2576    1.9899    0.0000 C   0  0  0  0  0  0  0  0  0  0  0  0
    3.5136   -1.8830    0.0000 C   0  0  0  0  0  0  0  0  0  0  0  0
    1.8082    1.6037    0.0000 C   0  0  0  0  0  0  0  0  0  0  0  0
    2.8378   -4.3917    0.0000 C   0  0  0  0  0  0  0  0  0  0  0  0
   -2.2799   -0.3223    0.0000 C   0  0  0  0  0  0  0  0  0  0  0  0
    5.5707    0.6503    0.0000 C   0  0  0  0  0  0  0  0  0  0  0  0
   -2.9557   -2.8309    0.0000 C   0  0  0  0  0  0  0  0  0  0  0  0
    3.6478    3.4383    0.0000 C   0  0  0  0  0  0  0  0  0  0  0  0
    0.7490    2.6658    0.0000 C   0  0  0  0  0  0  0  0  0  0  0  0
   -3.7282    0.0679    0.0000 C   0  0  0  0  0  0  0  0  0  0  0  0
   -4.4041   -2.4407    0.0000 C   0  0  0  0  0  0  0  0  0  0  0  0
   -4.7903   -0.9913    0.0000 C   0  0  0  0  0  0  0  0  0  0  0  0
    2.5886    4.5004    0.0000 C   0  0  0  0  0  0  0  0  0  0  0  0
    1.1391    4.1141    0.0000 C   0  0  0  0  0  0  0  0  0  0  0  0
   -3.0524    2.5765    0.0000 C   0  0  0  0  0  0  0  0  0  0  0  0
   -6.6250    0.8483    0.0000 C   0  0  0  0  0  0  0  0  0  0  0  0
    0.6129   -4.0004    0.0000 H   0  0  0  0  0  0  0  0  0  0  0  0
    1.3933   -1.1037    0.0000 H   0  0  0  0  0  0  0  0  0  0  0  0
   -0.0551   -0.7135    0.0000 H   0  0  0  0  0  0  0  0  0  0  0  0
   -0.8354   -3.6102    0.0000 H   0  0  0  0  0  0  0  0  0  0  0  0
    1.3883   -4.7779    0.0000 H   0  0  0  0  0  0  0  0  0  0  0  0
    4.2872   -4.0054    0.0000 H   0  0  0  0  0  0  0  0  0  0  0  0
    3.2240   -5.8411    0.0000 H   0  0  0  0  0  0  0  0  0  0  0  0
   -1.2178    0.7369    0.0000 H   0  0  0  0  0  0  0  0  0  0  0  0
   -2.5694   -4.2803    0.0000 H   0  0  0  0  0  0  0  0  0  0  0  0
    5.4902   -0.8475    0.0000 H   0  0  0  0  0  0  0  0  0  0  0  0
    5.6512    2.1481    0.0000 H   0  0  0  0  0  0  0  0  0  0  0  0
    7.0685    0.5698    0.0000 H   0  0  0  0  0  0  0  0  0  0  0  0
    5.0972    3.8246    0.0000 H   0  0  0  0  0  0  0  0  0  0  0  0
   -0.7004    2.2795    0.0000 H   0  0  0  0  0  0  0  0  0  0  0  0
   -5.4662   -3.5000    0.0000 H   0  0  0  0  0  0  0  0  0  0  0  0
    2.9787    5.9488    0.0000 H   0  0  0  0  0  0  0  0  0  0  0  0
    0.0799    5.1762    0.0000 H   0  0  0  0  0  0  0  0  0  0  0  0
   -4.1116    3.6386    0.0000 H   0  0  0  0  0  0  0  0  0  0  0  0
   -1.9932    1.5144    0.0000 H   0  0  0  0  0  0  0  0  0  0  0  0
   -1.9903    3.6358    0.0000 H   0  0  0  0  0  0  0  0  0  0  0  0
   -8.0744    0.4620    0.0000 H   0  0  0  0  0  0  0  0  0  0  0  0
   -5.1756    1.2345    0.0000 H   0  0  0  0  0  0  0  0  0  0  0  0
   -7.0112    2.2977    0.0000 H   0  0  0  0  0  0  0  0  0  0  0  0
  1  8  1  0
  1 13  1  0
  2 12  2  0
  3 20  1  0
  3 25  1  0
  4 22  1  0
  4 26  1  0
  5  6  1  0
  5 12  1  0
  5 14  1  0
  6  7  1  0
  6 27  1  0
  6 28  1  0
  7 10  1  0
  7 29  1  0
  7 30  1  0
  8  9  2  0
  8 12  1  0
  9 11  1  0
  9 16  1  0
 10 15  2  0
 10 17  1  0
 11 13  2  0
 11 18  1  0
 13 19  1  0
 14 31  1  0
 14 32  1  0
 14 33  1  0
 15 20  1  0
 15 34  1  0
 16 36  1  0
 16 37  1  0
 16 38  1  0
 17 21  2  0
 17 35  1  0
 18 23  2  0
 18 39  1  0
 19 24  2  0
 19 40  1  0
 20 22  2  0
 21 22  1  0
 21 41  1  0
 23 24  1  0
 23 42  1  0
 24 43  1  0
 25 44  1  0
 25 45  1  0
 25 46  1  0
 26 47  1  0
 26 48  1  0
 26 49  1  0
M  STY  8   1 DAT   2 DAT   3 DAT   4 DAT   5 DAT   6 DAT   7 DAT   8 DAT
M  STY  8   9 DAT  10 DAT  11 DAT  12 DAT  13 DAT  14 DAT  15 DAT  16 DAT
M  STY  8  17 DAT  18 DAT  19 DAT  20 DAT  21 DAT  22 DAT  23 DAT  24 DAT
M  STY  8  25 DAT  26 DAT  27 DAT  28 DAT  29 DAT  30 DAT  31 DAT  32 DAT
M  STY  8  33 DAT  34 DAT  35 DAT  36 DAT  37 DAT  38 DAT  39 DAT  40 DAT
M  STY  8  41 DAT  42 DAT  43 DAT  44 DAT  45 DAT  46 DAT  47 DAT  48 DAT
M  STY  1  49 DAT
M  SAL   1  1   1
M  SED   1 [#8&h0]
M  SAL   2  1   2
M  SED   2 [#8&h0]
M  SAL   3  1   3
M  SED   3 [#8&h0]
M  SAL   4  1   4
M  SED   4 [#8&h0]
M  SAL   5  1   5
M  SED   5 [#7&h0]
M  SAL   6  1   6
M  SED   6 [#6&h0]
M  SAL   7  1   7
M  SED   7 [#6&h0]
M  SAL   8  1   8
M  SED   8 [#6&h0]
M  SAL   9  1   9
M  SED   9 [#6&h0]
M  SAL  10  1  10
M  SED  10 [#6&h0]
M  SAL  11  1  11
M  SED  11 [#6&h0]
M  SAL  12  1  12
M  SED  12 [#6&h0]
M  SAL  13  1  13
M  SED  13 [#6&h0]
M  SAL  14  1  14
M  SED  14 [#6&h0]
M  SAL  15  1  15
M  SED  15 [#6&h0]
M  SAL  16  1  16
M  SED  16 [#6&h0]
M  SAL  17  1  17
M  SED  17 [#6&h0]
M  SAL  18  1  18
M  SED  18 [#6&h0]
M  SAL  19  1  19
M  SED  19 [#6&h0]
M  SAL  20  1  20
M  SED  20 [#6&h0]
M  SAL  21  1  21
M  SED  21 [#6&h0]
M  SAL  22  1  22
M  SED  22 [#6&h0]
M  SAL  23  1  23
M  SED  23 [#6&h0]
M  SAL  24  1  24
M  SED  24 [#6&h0]
M  SAL  25  1  25
M  SED  25 [#6&h0]
M  SAL  26  1  26
M  SED  26 [#6&h0]
M  SAL  27  1  27
M  SED  27 [#1&h0]
M  SAL  28  1  28
M  SED  28 [#1&h0]
M  SAL  29  1  29
M  SED  29 [#1&h0]
M  SAL  30  1  30
M  SED  30 [#1&h0]
M  SAL  31  1  31
M  SED  31 [#1&h0]
M  SAL  32  1  32
M  SED  32 [#1&h0]
M  SAL  33  1  33
M  SED  33 [#1&h0]
M  SAL  34  1  34
M  SED  34 [#1&h0]
M  SAL  35  1  35
M  SED  35 [#1&h0]
M  SAL  36  1  36
M  SED  36 [#1&h0]
M  SAL  37  1  37
M  SED  37 [#1&h0]
M  SAL  38  1  38
M  SED  38 [#1&h0]
M  SAL  39  1  39
M  SED  39 [#1&h0]
M  SAL  40  1  40
M  SED  40 [#1&h0]
M  SAL  41  1  41
M  SED  41 [#1&h0]
M  SAL  42  1  42
M  SED  42 [#1&h0]
M  SAL  43  1  43
M  SED  43 [#1&h0]
M  SAL  44  1  44
M  SED  44 [#1&h0]
M  SAL  45  1  45
M  SED  45 [#1&h0]
M  SAL  46  1  46
M  SED  46 [#1&h0]
M  SAL  47  1  47
M  SED  47 [#1&h0]
M  SAL  48  1  48
M  SED  48 [#1&h0]
M  SAL  49  1  49
M  SED  49 [#1&h0]
M  END
>  <Activity>  (172) 
0.01

>  <Mapped(file=2032.csv.activities,property=Cached(PUBCHEM_COMPOUND_CID))>  (172) 
100

>  <MatchIndices>  (172) 
30 

>  <PUBCHEM_ATOM_DEF_STEREO_COUNT>  (172) 
0

>  <PUBCHEM_ATOM_UDEF_STEREO_COUNT>  (172) 
0

>  <PUBCHEM_BONDANNOTATIONS>  (172) 
1  13  8
1  8  8
10  15  8
10  17  8
11  13  8
11  18  8
13  19  8
15  20  8
17  21  8
18  23  8
19  24  8
20  22  8
21  22  8
23  24  8
8  9  8
9  11  8

>  <PUBCHEM_BOND_DEF_STEREO_COUNT>  (172) 
0

>  <PUBCHEM_BOND_UDEF_STEREO_COUNT>  (172) 
0

>  <PUBCHEM_CACTVS_COMPLEXITY>  (172) 
471

>  <PUBCHEM_CACTVS_HBOND_ACCEPTOR>  (172) 
4

>  <PUBCHEM_CACTVS_HBOND_DONOR>  (172) 
0

>  <PUBCHEM_CACTVS_ROTATABLE_BOND>  (172) 
6

>  <PUBCHEM_CACTVS_SUBSKEYS>  (172) 
AAADceB6OAAAAAAAAAAAAAAAAAAAASAAAAAwYAAAAAAAAEgB9AAAHgAAAAAADATBmAYyBsMABECIAqFSEAKCCAAkIAAIiAHOjMgPJjKEtT+HOSrkxhGaqYeY3/LuoAABAAAIQABAAAIAABCAAAAAAAAAAA==

>  <PUBCHEM_CACTVS_TAUTO_COUNT>  (172) 
1

>  <PUBCHEM_CACTVS_TPSA>  (172) 
51.9

>  <PUBCHEM_COMPONENT_COUNT>  (172) 
1

>  <PUBCHEM_COMPOUND_CANONICALIZED>  (172) 
1

>  <PUBCHEM_COMPOUND_CID>  (172) 
17452193

>  <PUBCHEM_COORDINATE_TYPE>  (172) 
1
5
255

>  <PUBCHEM_EXACT_MASS>  (172) 
353.162708

>  <PUBCHEM_HEAVY_ATOM_COUNT>  (172) 
26

>  <PUBCHEM_ISOTOPIC_ATOM_COUNT>  (172) 
0

>  <PUBCHEM_IUPAC_CAS_NAME>  (172) 
N-[2-(3,4-dimethoxyphenyl)ethyl]-N,3-dimethyl-2-benzofurancarboxamide

>  <PUBCHEM_IUPAC_INCHI>  (172) 
InChI=1S/C21H23NO4/c1-14-16-7-5-6-8-17(16)26-20(14)21(23)22(2)12-11-15-9-10-18(24-3)19(13-15)25-4/h5-10,13H,11-12H2,1-4H3

>  <PUBCHEM_IUPAC_INCHIKEY>  (172) 
GPHXLFUEFGYOFQ-UHFFFAOYSA-N

>  <PUBCHEM_IUPAC_NAME>  (172) 
N-[2-(3,4-dimethoxyphenyl)ethyl]-N,3-dimethyl-1-benzofuran-2-carboxamide

>  <PUBCHEM_IUPAC_OPENEYE_NAME>  (172) 
N-[2-(3,4-dimethoxyphenyl)ethyl]-N,3-dimethyl-benzofuran-2-carboxamide

>  <PUBCHEM_IUPAC_SYSTEMATIC_NAME>  (172) 
N-[2-(3,4-dimethoxyphenyl)ethyl]-N,3-dimethyl-1-benzofuran-2-carboxamide

>  <PUBCHEM_IUPAC_TRADITIONAL_NAME>  (172) 
N-homoveratryl-N,3-dimethyl-coumarilamide

>  <PUBCHEM_MOLECULAR_FORMULA>  (172) 
C21H23NO4

>  <PUBCHEM_MOLECULAR_WEIGHT>  (172) 
353.41162

>  <PUBCHEM_MONOISOTOPIC_WEIGHT>  (172) 
353.162708

>  <PUBCHEM_OPENEYE_CAN_SMILES>  (172) 
CC1=C(OC2=CC=CC=C12)C(=O)N(C)CCC3=CC(=C(C=C3)OC)OC

>  <PUBCHEM_OPENEYE_ISO_SMILES>  (172) 
CC1=C(OC2=CC=CC=C12)C(=O)N(C)CCC3=CC(=C(C=C3)OC)OC

>  <PUBCHEM_TOTAL_CHARGE>  (172) 
0

>  <PUBCHEM_XLOGP3_AA>  (172) 
4.4

$$$$
