
     RDKit          2D

 58 60  0  0  0  0  0  0  0  0999 V2000
   -6.0877    0.7356    0.0000 C   0  0  0  0  0  0  0  0  0  0  0  0
   -4.7265    0.1053    0.0000 C   0  0  0  0  0  0  0  0  0  0  0  0
   -3.3654   -0.5250    0.0000 C   0  0  0  0  0  0  0  0  0  0  0  0
   -2.1389    0.3387    0.0000 C   0  0  0  0  0  0  0  0  0  0  0  0
   -2.2737    1.8326    0.0000 C   0  0  0  0  0  0  0  0  0  0  0  0
   -3.6348    2.4629    0.0000 C   0  0  0  0  0  0  0  0  0  0  0  0
   -3.7695    3.9568    0.0000 C   0  0  0  0  0  0  0  0  0  0  0  0
   -2.5431    4.8205    0.0000 C   0  0  0  0  0  0  0  0  0  0  0  0
   -1.1820    4.1902    0.0000 C   0  0  0  0  0  0  0  0  0  0  0  0
   -1.0472    2.6962    0.0000 C   0  0  0  0  0  0  0  0  0  0  0  0
   -2.6778    6.3144    0.0000 O   0  0  0  0  0  0  0  0  0  0  0  0
   -0.7778   -0.2916    0.0000 C   0  0  0  0  0  0  0  0  0  0  0  0
   -0.6431   -1.7856    0.0000 C   0  0  0  0  0  0  0  0  0  0  0  0
    0.7181   -2.4159    0.0000 C   0  0  0  0  0  0  0  0  0  0  0  0
    1.9445   -1.5522    0.0000 C   0  0  0  0  0  0  0  0  0  0  0  0
    1.8098   -0.0583    0.0000 C   0  0  0  0  0  0  0  0  0  0  0  0
    0.4486    0.5720    0.0000 C   0  0  0  0  0  0  0  0  0  0  0  0
    3.3057   -2.1825    0.0000 O   0  0  0  0  0  0  0  0  0  0  0  0
    4.5321   -1.3189    0.0000 C   0  0  0  0  0  0  0  0  0  0  0  0
    5.7585   -0.4553    0.0000 C   0  0  0  0  0  0  0  0  0  0  0  0
    6.9849    0.4084    0.0000 N   0  0  0  0  0  0  0  0  0  0  0  0
    6.8502    1.9023    0.0000 C   0  0  0  0  0  0  0  0  0  0  0  0
    8.3461   -0.2219    0.0000 C   0  0  0  0  0  0  0  0  0  0  0  0
   -3.2307   -2.0189    0.0000 C   0  0  0  0  0  0  0  0  0  0  0  0
   -4.4571   -2.8826    0.0000 C   0  0  0  0  0  0  0  0  0  0  0  0
   -4.3224   -4.3765    0.0000 C   0  0  0  0  0  0  0  0  0  0  0  0
   -2.9612   -5.0068    0.0000 C   0  0  0  0  0  0  0  0  0  0  0  0
   -1.7348   -4.1432    0.0000 C   0  0  0  0  0  0  0  0  0  0  0  0
   -1.8695   -2.6492    0.0000 C   0  0  0  0  0  0  0  0  0  0  0  0
   -6.7180   -0.6255    0.0000 H   0  0  0  0  0  0  0  0  0  0  0  0
   -5.7153    1.8922    0.0000 H   0  0  0  0  0  0  0  0  0  0  0  0
   -7.4488    1.3659    0.0000 H   0  0  0  0  0  0  0  0  0  0  0  0
   -5.3568   -1.2558    0.0000 H   0  0  0  0  0  0  0  0  0  0  0  0
   -4.3914    1.1462    0.0000 H   0  0  0  0  0  0  0  0  0  0  0  0
   -4.4609    2.1433    0.0000 H   0  0  0  0  0  0  0  0  0  0  0  0
   -5.1307    4.5871    0.0000 H   0  0  0  0  0  0  0  0  0  0  0  0
    0.0445    5.0538    0.0000 H   0  0  0  0  0  0  0  0  0  0  0  0
    0.3806    2.2366    0.0000 H   0  0  0  0  0  0  0  0  0  0  0  0
   -4.0390    6.9447    0.0000 H   0  0  0  0  0  0  0  0  0  0  0  0
   -1.1644   -2.3886    0.0000 H   0  0  0  0  0  0  0  0  0  0  0  0
    0.8528   -3.9098    0.0000 H   0  0  0  0  0  0  0  0  0  0  0  0
    3.0362    0.8053    0.0000 H   0  0  0  0  0  0  0  0  0  0  0  0
    0.4970    2.0712    0.0000 H   0  0  0  0  0  0  0  0  0  0  0  0
    5.3957   -2.5453    0.0000 H   0  0  0  0  0  0  0  0  0  0  0  0
    3.6684   -0.0925    0.0000 H   0  0  0  0  0  0  0  0  0  0  0  0
    4.8949    0.7712    0.0000 H   0  0  0  0  0  0  0  0  0  0  0  0
    6.6221   -1.6817    0.0000 H   0  0  0  0  0  0  0  0  0  0  0  0
    8.3442    2.0370    0.0000 H   0  0  0  0  0  0  0  0  0  0  0  0
    5.3563    1.7676    0.0000 H   0  0  0  0  0  0  0  0  0  0  0  0
    6.7155    3.3963    0.0000 H   0  0  0  0  0  0  0  0  0  0  0  0
    8.9764    1.1392    0.0000 H   0  0  0  0  0  0  0  0  0  0  0  0
    7.7158   -1.5831    0.0000 H   0  0  0  0  0  0  0  0  0  0  0  0
    9.7072   -0.8522    0.0000 H   0  0  0  0  0  0  0  0  0  0  0  0
   -5.8182   -2.2523    0.0000 H   0  0  0  0  0  0  0  0  0  0  0  0
   -5.5488   -5.2401    0.0000 H   0  0  0  0  0  0  0  0  0  0  0  0
   -2.8265   -6.5007    0.0000 H   0  0  0  0  0  0  0  0  0  0  0  0
   -0.3736   -4.7735    0.0000 H   0  0  0  0  0  0  0  0  0  0  0  0
   -0.4705   -2.1080    0.0000 H   0  0  0  0  0  0  0  0  0  0  0  0
  1  2  1  0
  1 30  1  0
  1 31  1  0
  1 32  1  0
  2  3  1  0
  2 33  1  0
  2 34  1  0
  3  4  2  0
  3 24  1  0
  4  5  1  0
  4 12  1  0
  5  6  2  0
  5 10  1  0
  6  7  1  0
  6 35  1  0
  7  8  2  0
  7 36  1  0
  8  9  1  0
  8 11  1  0
  9 10  2  0
  9 37  1  0
 10 38  1  0
 11 39  1  0
 12 13  2  0
 12 17  1  0
 13 14  1  0
 13 40  1  0
 14 15  2  0
 14 41  1  0
 15 16  1  0
 15 18  1  0
 16 17  2  0
 16 42  1  0
 17 43  1  0
 18 19  1  0
 19 20  1  0
 19 44  1  0
 19 45  1  0
 20 21  1  0
 20 46  1  0
 20 47  1  0
 21 22  1  0
 21 23  1  0
 22 48  1  0
 22 49  1  0
 22 50  1  0
 23 51  1  0
 23 52  1  0
 23 53  1  0
 24 25  2  0
 24 29  1  0
 25 26  1  0
 25 54  1  0
 26 27  2  0
 26 55  1  0
 27 28  1  0
 27 56  1  0
 28 29  2  0
 28 57  1  0
 29 58  1  0
M  END
$$$$

     RDKit          2D

 66 64  0  0  0  0  0  0  0  0999 V2000
   14.4798   -0.0157    0.0000 C   0  0  0  0  0  0  0  0  0  0  0  0
   12.9798   -0.0130    0.0000 C   0  0  0  0  0  0  0  0  0  0  0  0
   11.4798   -0.0102    0.0000 C   0  0  0  0  0  0  0  0  0  0  0  0
    9.9798   -0.0075    0.0000 C   0  0  0  0  0  0  0  0  0  0  0  0
    8.4798   -0.0048    0.0000 C   0  0  0  0  0  0  0  0  0  0  0  0
    6.9798   -0.0021    0.0000 C   0  0  0  0  0  0  0  0  0  0  0  0
    5.4798    0.0006    0.0000 C   0  0  0  0  0  0  0  0  0  0  0  0
    3.9798    0.0033    0.0000 C   0  0  0  0  0  0  0  0  0  0  0  0
    2.4798    0.0060    0.0000 C   0  0  0  0  0  0  0  0  0  0  0  0
    0.9798    0.0088    0.0000 C   0  0  0  0  0  0  0  0  0  0  0  0
   -0.5202    0.0115    0.0000 C   0  0  0  0  0  0  0  0  0  0  0  0
   -2.0202    0.0142    0.0000 C   0  0  0  0  0  0  0  0  0  0  0  0
   -3.5202    0.0169    0.0000 C   0  0  0  0  0  0  0  0  0  0  0  0
   -5.0202    0.0196    0.0000 C   0  0  0  0  0  0  0  0  0  0  0  0
   -6.5202    0.0223    0.0000 C   0  0  0  0  0  0  0  0  0  0  0  0
   -8.0202    0.0250    0.0000 C   0  0  0  0  0  0  0  0  0  0  0  0
   -9.5202    0.0278    0.0000 N   0  0  0  0  0  0  0  0  0  0  0  0
   -9.5229   -1.4722    0.0000 C   0  0  0  0  0  0  0  0  0  0  0  0
   -9.5175    1.5278    0.0000 C   0  0  0  0  0  0  0  0  0  0  0  0
  -11.0202    0.0305    0.0000 C   0  0  0  0  0  0  0  0  0  0  0  0
  -12.5202    0.0332    0.0000 C   0  0  0  0  0  0  0  0  0  0  0  0
    0.0000    4.0278    0.0000 Br  0  0  0  0  0  0  0  0  0  0  0  0
   14.4770   -1.5157    0.0000 H   0  0  0  0  0  0  0  0  0  0  0  0
   14.4825    1.4843    0.0000 H   0  0  0  0  0  0  0  0  0  0  0  0
   15.9798   -0.0184    0.0000 H   0  0  0  0  0  0  0  0  0  0  0  0
   12.9770   -1.5130    0.0000 H   0  0  0  0  0  0  0  0  0  0  0  0
   12.9825    1.4870    0.0000 H   0  0  0  0  0  0  0  0  0  0  0  0
   11.4825    1.4898    0.0000 H   0  0  0  0  0  0  0  0  0  0  0  0
   11.4770   -1.5102    0.0000 H   0  0  0  0  0  0  0  0  0  0  0  0
    9.9771   -1.5075    0.0000 H   0  0  0  0  0  0  0  0  0  0  0  0
    9.9825    1.4925    0.0000 H   0  0  0  0  0  0  0  0  0  0  0  0
    8.4825    1.4952    0.0000 H   0  0  0  0  0  0  0  0  0  0  0  0
    8.4771   -1.5048    0.0000 H   0  0  0  0  0  0  0  0  0  0  0  0
    6.9771   -1.5021    0.0000 H   0  0  0  0  0  0  0  0  0  0  0  0
    6.9825    1.4979    0.0000 H   0  0  0  0  0  0  0  0  0  0  0  0
    5.4825    1.5006    0.0000 H   0  0  0  0  0  0  0  0  0  0  0  0
    5.4771   -1.4994    0.0000 H   0  0  0  0  0  0  0  0  0  0  0  0
    3.9771   -1.4967    0.0000 H   0  0  0  0  0  0  0  0  0  0  0  0
    3.9825    1.5033    0.0000 H   0  0  0  0  0  0  0  0  0  0  0  0
    2.4825    1.5060    0.0000 H   0  0  0  0  0  0  0  0  0  0  0  0
    2.4771   -1.4940    0.0000 H   0  0  0  0  0  0  0  0  0  0  0  0
    0.9771   -1.4912    0.0000 H   0  0  0  0  0  0  0  0  0  0  0  0
    0.9825    1.5088    0.0000 H   0  0  0  0  0  0  0  0  0  0  0  0
   -0.5175    1.5115    0.0000 H   0  0  0  0  0  0  0  0  0  0  0  0
   -0.5229   -1.4885    0.0000 H   0  0  0  0  0  0  0  0  0  0  0  0
   -2.0229   -1.4858    0.0000 H   0  0  0  0  0  0  0  0  0  0  0  0
   -2.0175    1.5142    0.0000 H   0  0  0  0  0  0  0  0  0  0  0  0
   -3.5175    1.5169    0.0000 H   0  0  0  0  0  0  0  0  0  0  0  0
   -3.5229   -1.4831    0.0000 H   0  0  0  0  0  0  0  0  0  0  0  0
   -5.0229   -1.4804    0.0000 H   0  0  0  0  0  0  0  0  0  0  0  0
   -5.0175    1.5196    0.0000 H   0  0  0  0  0  0  0  0  0  0  0  0
   -6.5175    1.5223    0.0000 H   0  0  0  0  0  0  0  0  0  0  0  0
   -6.5229   -1.4777    0.0000 H   0  0  0  0  0  0  0  0  0  0  0  0
   -7.9138   -0.8543    0.0000 H   0  0  0  0  0  0  0  0  0  0  0  0
   -7.9106    0.9040    0.0000 H   0  0  0  0  0  0  0  0  0  0  0  0
  -11.0121   -1.6524    0.0000 H   0  0  0  0  0  0  0  0  0  0  0  0
   -8.6440   -1.5818    0.0000 H   0  0  0  0  0  0  0  0  0  0  0  0
   -9.5256   -2.9722    0.0000 H   0  0  0  0  0  0  0  0  0  0  0  0
  -10.3964    1.6373    0.0000 H   0  0  0  0  0  0  0  0  0  0  0  0
   -8.6382    1.6341    0.0000 H   0  0  0  0  0  0  0  0  0  0  0  0
   -9.5148    3.0278    0.0000 H   0  0  0  0  0  0  0  0  0  0  0  0
  -11.1266    0.9098    0.0000 H   0  0  0  0  0  0  0  0  0  0  0  0
  -11.2057   -1.4580    0.0000 H   0  0  0  0  0  0  0  0  0  0  0  0
  -12.5175    1.5332    0.0000 H   0  0  0  0  0  0  0  0  0  0  0  0
  -12.5229   -1.4668    0.0000 H   0  0  0  0  0  0  0  0  0  0  0  0
  -14.0202    0.0359    0.0000 H   0  0  0  0  0  0  0  0  0  0  0  0
  1  2  1  0
  1 23  1  0
  1 24  1  0
  1 25  1  0
  2  3  1  0
  2 26  1  0
  2 27  1  0
  3  4  1  0
  3 28  1  0
  3 29  1  0
  4  5  1  0
  4 30  1  0
  4 31  1  0
  5  6  1  0
  5 32  1  0
  5 33  1  0
  6  7  1  0
  6 34  1  0
  6 35  1  0
  7  8  1  0
  7 36  1  0
  7 37  1  0
  8  9  1  0
  8 38  1  0
  8 39  1  0
  9 10  1  0
  9 40  1  0
  9 41  1  0
 10 11  1  0
 10 42  1  0
 10 43  1  0
 11 12  1  0
 11 44  1  0
 11 45  1  0
 12 13  1  0
 12 46  1  0
 12 47  1  0
 13 14  1  0
 13 48  1  0
 13 49  1  0
 14 15  1  0
 14 50  1  0
 14 51  1  0
 15 16  1  0
 15 52  1  0
 15 53  1  0
 16 17  1  0
 16 54  1  0
 16 55  1  0
 17 18  1  0
 17 19  1  0
 17 20  1  0
 18 56  1  0
 18 57  1  0
 18 58  1  0
 19 59  1  0
 19 60  1  0
 19 61  1  0
 20 21  1  0
 20 62  1  0
 20 63  1  0
 21 64  1  0
 21 65  1  0
 21 66  1  0
M  CHG  2  17   1  22  -1
M  END
$$$$

     RDKit          2D

 78 79  0  0  0  0  0  0  0  0999 V2000
   -6.1233    1.0804    0.0000 C   0  0  0  0  0  0  0  0  0  0  0  0
   -4.7860    0.4012    0.0000 C   0  0  0  0  0  0  0  0  0  0  0  0
   -3.4486   -0.2781    0.0000 C   0  0  0  0  0  0  0  0  0  0  0  0
   -2.1916    0.5404    0.0000 C   0  0  0  0  0  0  0  0  0  0  0  0
   -2.2720    2.0383    0.0000 C   0  0  0  0  0  0  0  0  0  0  0  0
   -1.0151    2.8568    0.0000 C   0  0  0  0  0  0  0  0  0  0  0  0
   -1.0955    4.3546    0.0000 C   0  0  0  0  0  0  0  0  0  0  0  0
   -2.4328    5.0339    0.0000 C   0  0  0  0  0  0  0  0  0  0  0  0
   -3.6898    4.2154    0.0000 C   0  0  0  0  0  0  0  0  0  0  0  0
   -3.6094    2.7175    0.0000 C   0  0  0  0  0  0  0  0  0  0  0  0
   -0.8543   -0.1389    0.0000 C   0  0  0  0  0  0  0  0  0  0  0  0
   -0.7739   -1.6367    0.0000 C   0  0  0  0  0  0  0  0  0  0  0  0
    0.5635   -2.3160    0.0000 C   0  0  0  0  0  0  0  0  0  0  0  0
    1.8205   -1.4975    0.0000 C   0  0  0  0  0  0  0  0  0  0  0  0
    1.7401    0.0004    0.0000 C   0  0  0  0  0  0  0  0  0  0  0  0
    0.4027    0.6797    0.0000 C   0  0  0  0  0  0  0  0  0  0  0  0
    3.1579   -2.1768    0.0000 O   0  0  0  0  0  0  0  0  0  0  0  0
    4.4148   -1.3582    0.0000 C   0  0  0  0  0  0  0  0  0  0  0  0
    5.6718   -0.5397    0.0000 C   0  0  0  0  0  0  0  0  0  0  0  0
    6.9288    0.2789    0.0000 N   0  0  0  0  0  0  0  0  0  0  0  0
    6.8484    1.7767    0.0000 C   0  0  0  0  0  0  0  0  0  0  0  0
    8.2661   -0.4004    0.0000 C   0  0  0  0  0  0  0  0  0  0  0  0
   -3.3682   -1.7760    0.0000 C   0  0  0  0  0  0  0  0  0  0  0  0
   -4.6252   -2.5945    0.0000 C   0  0  0  0  0  0  0  0  0  0  0  0
   -4.5448   -4.0924    0.0000 C   0  0  0  0  0  0  0  0  0  0  0  0
   -3.2074   -4.7717    0.0000 C   0  0  0  0  0  0  0  0  0  0  0  0
   -1.9504   -3.9531    0.0000 C   0  0  0  0  0  0  0  0  0  0  0  0
   -2.0308   -2.4553    0.0000 C   0  0  0  0  0  0  0  0  0  0  0  0
   -1.4721    9.7020    0.0000 C   0  0  0  0  0  0  0  0  0  0  0  0
   -2.9669    9.5774    0.0000 C   0  0  0  0  0  0  0  0  0  0  0  0
   -3.8222   10.8096    0.0000 O   0  0  0  0  0  0  0  0  0  0  0  0
   -3.6063    8.2205    0.0000 O   0  0  0  0  0  0  0  0  0  0  0  0
    0.0228    9.8267    0.0000 C   0  0  0  0  0  0  0  0  0  0  0  0
    1.5176    9.9513    0.0000 C   0  0  0  0  0  0  0  0  0  0  0  0
    3.0124   10.0760    0.0000 C   0  0  0  0  0  0  0  0  0  0  0  0
    3.6518   11.4328    0.0000 O   0  0  0  0  0  0  0  0  0  0  0  0
    3.8677    8.8437    0.0000 O   0  0  0  0  0  0  0  0  0  0  0  0
   -0.1019   11.3215    0.0000 C   0  0  0  0  0  0  0  0  0  0  0  0
    1.0169   12.3207    0.0000 O   0  0  0  0  0  0  0  0  0  0  0  0
   -1.4588   11.9610    0.0000 O   0  0  0  0  0  0  0  0  0  0  0  0
    0.1474    8.3319    0.0000 O   0  0  0  0  0  0  0  0  0  0  0  0
   -6.8026   -0.2569    0.0000 H   0  0  0  0  0  0  0  0  0  0  0  0
   -5.7093    2.2227    0.0000 H   0  0  0  0  0  0  0  0  0  0  0  0
   -7.4607    1.7597    0.0000 H   0  0  0  0  0  0  0  0  0  0  0  0
   -5.4653   -0.9362    0.0000 H   0  0  0  0  0  0  0  0  0  0  0  0
   -4.4133    1.4292    0.0000 H   0  0  0  0  0  0  0  0  0  0  0  0
    0.3951    2.3456    0.0000 H   0  0  0  0  0  0  0  0  0  0  0  0
    0.1615    5.1732    0.0000 H   0  0  0  0  0  0  0  0  0  0  0  0
   -2.5132    6.5318    0.0000 H   0  0  0  0  0  0  0  0  0  0  0  0
   -5.0272    4.8947    0.0000 H   0  0  0  0  0  0  0  0  0  0  0  0
   -4.4465    2.4282    0.0000 H   0  0  0  0  0  0  0  0  0  0  0  0
   -1.3168   -2.2205    0.0000 H   0  0  0  0  0  0  0  0  0  0  0  0
    0.6439   -3.8139    0.0000 H   0  0  0  0  0  0  0  0  0  0  0  0
    2.9971    0.8189    0.0000 H   0  0  0  0  0  0  0  0  0  0  0  0
    0.5055    2.1761    0.0000 H   0  0  0  0  0  0  0  0  0  0  0  0
    5.2334   -2.6152    0.0000 H   0  0  0  0  0  0  0  0  0  0  0  0
    3.5963   -0.1012    0.0000 H   0  0  0  0  0  0  0  0  0  0  0  0
    4.8532    0.7173    0.0000 H   0  0  0  0  0  0  0  0  0  0  0  0
    6.4903   -1.7966    0.0000 H   0  0  0  0  0  0  0  0  0  0  0  0
    8.3462    1.8571    0.0000 H   0  0  0  0  0  0  0  0  0  0  0  0
    5.3505    1.6963    0.0000 H   0  0  0  0  0  0  0  0  0  0  0  0
    6.7680    3.2746    0.0000 H   0  0  0  0  0  0  0  0  0  0  0  0
    8.9454    0.9370    0.0000 H   0  0  0  0  0  0  0  0  0  0  0  0
    7.5868   -1.7378    0.0000 H   0  0  0  0  0  0  0  0  0  0  0  0
    9.6035   -1.0797    0.0000 H   0  0  0  0  0  0  0  0  0  0  0  0
   -5.9625   -1.9152    0.0000 H   0  0  0  0  0  0  0  0  0  0  0  0
   -5.8017   -4.9109    0.0000 H   0  0  0  0  0  0  0  0  0  0  0  0
   -3.1270   -6.2695    0.0000 H   0  0  0  0  0  0  0  0  0  0  0  0
   -0.6131   -4.6324    0.0000 H   0  0  0  0  0  0  0  0  0  0  0  0
   -0.6131   -1.9652    0.0000 H   0  0  0  0  0  0  0  0  0  0  0  0
   -1.9547   11.1223    0.0000 H   0  0  0  0  0  0  0  0  0  0  0  0
   -1.3474    8.2072    0.0000 H   0  0  0  0  0  0  0  0  0  0  0  0
   -5.1012    8.0959    0.0000 H   0  0  0  0  0  0  0  0  0  0  0  0
    1.5761   11.4502    0.0000 H   0  0  0  0  0  0  0  0  0  0  0  0
    1.8235    8.4829    0.0000 H   0  0  0  0  0  0  0  0  0  0  0  0
    5.3625    8.9684    0.0000 H   0  0  0  0  0  0  0  0  0  0  0  0
   -1.5834   13.4558    0.0000 H   0  0  0  0  0  0  0  0  0  0  0  0
    1.4162    7.5318    0.0000 H   0  0  0  0  0  0  0  0  0  0  0  0
  1  2  1  0
  1 42  1  0
  1 43  1  0
  1 44  1  0
  2  3  1  0
  2 45  1  0
  2 46  1  0
  3  4  2  0
  3 23  1  0
  4  5  1  0
  4 11  1  0
  5  6  2  0
  5 10  1  0
  6  7  1  0
  6 47  1  0
  7  8  2  0
  7 48  1  0
  8  9  1  0
  8 49  1  0
  9 10  2  0
  9 50  1  0
 10 51  1  0
 11 12  2  0
 11 16  1  0
 12 13  1  0
 12 52  1  0
 13 14  2  0
 13 53  1  0
 14 15  1  0
 14 17  1  0
 15 16  2  0
 15 54  1  0
 16 55  1  0
 17 18  1  0
 18 19  1  0
 18 56  1  0
 18 57  1  0
 19 20  1  0
 19 58  1  0
 19 59  1  0
 20 21  1  0
 20 22  1  0
 21 60  1  0
 21 61  1  0
 21 62  1  0
 22 63  1  0
 22 64  1  0
 22 65  1  0
 23 24  2  0
 23 28  1  0
 24 25  1  0
 24 66  1  0
 25 26  2  0
 25 67  1  0
 26 27  1  0
 26 68  1  0
 27 28  2  0
 27 69  1  0
 28 70  1  0
 29 30  1  0
 29 33  1  0
 29 71  1  0
 29 72  1  0
 30 31  2  0
 30 32  1  0
 32 73  1  0
 33 34  1  0
 33 38  1  0
 33 41  1  0
 34 35  1  0
 34 74  1  0
 34 75  1  0
 35 36  2  0
 35 37  1  0
 37 76  1  0
 38 39  2  0
 38 40  1  0
 40 77  1  0
 41 78  1  0
M  END
$$$$

     RDKit          2D

102100  0  0  0  0  0  0  0  0999 V2000
    8.4757   -8.4853    0.0000 C   0  0  0  0  0  0  0  0  0  0  0  0
    7.4150   -7.4246    0.0000 C   0  0  0  0  0  0  0  0  0  0  0  0
    6.3544   -6.3640    0.0000 C   0  0  0  0  0  0  0  0  0  0  0  0
    5.2937   -5.3033    0.0000 C   0  0  0  0  0  0  0  0  0  0  0  0
    4.2331   -4.2426    0.0000 C   0  0  0  0  0  0  0  0  0  0  0  0
    3.1724   -3.1820    0.0000 C   0  0  0  0  0  0  0  0  0  0  0  0
    2.1117   -2.1213    0.0000 C   0  0  0  0  0  0  0  0  0  0  0  0
    1.0511   -1.0607    0.0000 C   0  0  0  0  0  0  0  0  0  0  0  0
   -0.0096    0.0000    0.0000 N   0  0  0  0  0  0  0  0  0  0  0  0
   -1.0702    1.0607    0.0000 C   0  0  0  0  0  0  0  0  0  0  0  0
   -2.1309    2.1213    0.0000 C   0  0  0  0  0  0  0  0  0  0  0  0
   -3.1916    3.1820    0.0000 C   0  0  0  0  0  0  0  0  0  0  0  0
   -4.2522    4.2426    0.0000 C   0  0  0  0  0  0  0  0  0  0  0  0
   -5.3129    5.3033    0.0000 C   0  0  0  0  0  0  0  0  0  0  0  0
   -6.3735    6.3640    0.0000 C   0  0  0  0  0  0  0  0  0  0  0  0
   -7.4342    7.4246    0.0000 C   0  0  0  0  0  0  0  0  0  0  0  0
   -8.4949    8.4853    0.0000 C   0  0  0  0  0  0  0  0  0  0  0  0
   -1.0702   -1.0607    0.0000 C   0  0  0  0  0  0  0  0  0  0  0  0
   -2.1309   -2.1213    0.0000 C   0  0  0  0  0  0  0  0  0  0  0  0
   -3.1916   -3.1820    0.0000 C   0  0  0  0  0  0  0  0  0  0  0  0
   -4.2522   -4.2426    0.0000 C   0  0  0  0  0  0  0  0  0  0  0  0
   -5.3129   -5.3033    0.0000 C   0  0  0  0  0  0  0  0  0  0  0  0
   -6.3735   -6.3640    0.0000 C   0  0  0  0  0  0  0  0  0  0  0  0
   -7.4342   -7.4246    0.0000 C   0  0  0  0  0  0  0  0  0  0  0  0
   -8.4949   -8.4853    0.0000 C   0  0  0  0  0  0  0  0  0  0  0  0
    1.0511    1.0607    0.0000 C   0  0  0  0  0  0  0  0  0  0  0  0
    2.1117    2.1213    0.0000 C   0  0  0  0  0  0  0  0  0  0  0  0
    3.1724    3.1820    0.0000 C   0  0  0  0  0  0  0  0  0  0  0  0
    4.2331    4.2426    0.0000 C   0  0  0  0  0  0  0  0  0  0  0  0
    5.2937    5.3033    0.0000 C   0  0  0  0  0  0  0  0  0  0  0  0
    6.3544    6.3640    0.0000 C   0  0  0  0  0  0  0  0  0  0  0  0
    7.4150    7.4246    0.0000 C   0  0  0  0  0  0  0  0  0  0  0  0
    8.4757    8.4853    0.0000 C   0  0  0  0  0  0  0  0  0  0  0  0
   10.5364    0.0000    0.0000 Br  0  0  0  0  0  0  0  0  0  0  0  0
    7.4150   -9.5459    0.0000 H   0  0  0  0  0  0  0  0  0  0  0  0
    9.5364   -7.4246    0.0000 H   0  0  0  0  0  0  0  0  0  0  0  0
    9.5364   -9.5459    0.0000 H   0  0  0  0  0  0  0  0  0  0  0  0
    6.3544   -8.4853    0.0000 H   0  0  0  0  0  0  0  0  0  0  0  0
    8.4757   -6.3640    0.0000 H   0  0  0  0  0  0  0  0  0  0  0  0
    7.4150   -5.3033    0.0000 H   0  0  0  0  0  0  0  0  0  0  0  0
    5.2937   -7.4246    0.0000 H   0  0  0  0  0  0  0  0  0  0  0  0
    4.2331   -6.3640    0.0000 H   0  0  0  0  0  0  0  0  0  0  0  0
    6.3544   -4.2426    0.0000 H   0  0  0  0  0  0  0  0  0  0  0  0
    5.2937   -3.1820    0.0000 H   0  0  0  0  0  0  0  0  0  0  0  0
    3.1724   -5.3033    0.0000 H   0  0  0  0  0  0  0  0  0  0  0  0
    2.1117   -4.2426    0.0000 H   0  0  0  0  0  0  0  0  0  0  0  0
    4.2331   -2.1213    0.0000 H   0  0  0  0  0  0  0  0  0  0  0  0
    3.1724   -1.0607    0.0000 H   0  0  0  0  0  0  0  0  0  0  0  0
    1.0511   -3.1820    0.0000 H   0  0  0  0  0  0  0  0  0  0  0  0
    0.5058   -1.7586    0.0000 H   0  0  0  0  0  0  0  0  0  0  0  0
    2.2331   -0.1372    0.0000 H   0  0  0  0  0  0  0  0  0  0  0  0
   -0.5250    1.7586    0.0000 H   0  0  0  0  0  0  0  0  0  0  0  0
   -1.7682    0.5154    0.0000 H   0  0  0  0  0  0  0  0  0  0  0  0
   -1.0702    3.1820    0.0000 H   0  0  0  0  0  0  0  0  0  0  0  0
   -3.1916    1.0607    0.0000 H   0  0  0  0  0  0  0  0  0  0  0  0
   -4.2522    2.1213    0.0000 H   0  0  0  0  0  0  0  0  0  0  0  0
   -2.1309    4.2426    0.0000 H   0  0  0  0  0  0  0  0  0  0  0  0
   -3.1916    5.3033    0.0000 H   0  0  0  0  0  0  0  0  0  0  0  0
   -5.3129    3.1820    0.0000 H   0  0  0  0  0  0  0  0  0  0  0  0
   -6.3735    4.2426    0.0000 H   0  0  0  0  0  0  0  0  0  0  0  0
   -4.2522    6.3640    0.0000 H   0  0  0  0  0  0  0  0  0  0  0  0
   -5.3129    7.4246    0.0000 H   0  0  0  0  0  0  0  0  0  0  0  0
   -7.4342    5.3033    0.0000 H   0  0  0  0  0  0  0  0  0  0  0  0
   -8.4949    6.3640    0.0000 H   0  0  0  0  0  0  0  0  0  0  0  0
   -6.3735    8.4853    0.0000 H   0  0  0  0  0  0  0  0  0  0  0  0
   -7.4342    9.5459    0.0000 H   0  0  0  0  0  0  0  0  0  0  0  0
   -9.5555    7.4246    0.0000 H   0  0  0  0  0  0  0  0  0  0  0  0
   -9.5555    9.5459    0.0000 H   0  0  0  0  0  0  0  0  0  0  0  0
   -1.7682   -0.5154    0.0000 H   0  0  0  0  0  0  0  0  0  0  0  0
   -0.5250   -1.7586    0.0000 H   0  0  0  0  0  0  0  0  0  0  0  0
   -3.1916   -1.0607    0.0000 H   0  0  0  0  0  0  0  0  0  0  0  0
   -1.0702   -3.1820    0.0000 H   0  0  0  0  0  0  0  0  0  0  0  0
   -2.1309   -4.2426    0.0000 H   0  0  0  0  0  0  0  0  0  0  0  0
   -4.2522   -2.1213    0.0000 H   0  0  0  0  0  0  0  0  0  0  0  0
   -5.3129   -3.1820    0.0000 H   0  0  0  0  0  0  0  0  0  0  0  0
   -3.1916   -5.3033    0.0000 H   0  0  0  0  0  0  0  0  0  0  0  0
   -4.2522   -6.3640    0.0000 H   0  0  0  0  0  0  0  0  0  0  0  0
   -6.3735   -4.2426    0.0000 H   0  0  0  0  0  0  0  0  0  0  0  0
   -7.4342   -5.3033    0.0000 H   0  0  0  0  0  0  0  0  0  0  0  0
   -5.3129   -7.4246    0.0000 H   0  0  0  0  0  0  0  0  0  0  0  0
   -6.3735   -8.4853    0.0000 H   0  0  0  0  0  0  0  0  0  0  0  0
   -8.4949   -6.3640    0.0000 H   0  0  0  0  0  0  0  0  0  0  0  0
   -9.5555   -7.4246    0.0000 H   0  0  0  0  0  0  0  0  0  0  0  0
   -7.4342   -9.5459    0.0000 H   0  0  0  0  0  0  0  0  0  0  0  0
   -9.5555   -9.5459    0.0000 H   0  0  0  0  0  0  0  0  0  0  0  0
    0.5058    1.7586    0.0000 H   0  0  0  0  0  0  0  0  0  0  0  0
    2.2331    0.1372    0.0000 H   0  0  0  0  0  0  0  0  0  0  0  0
    3.1724    1.0607    0.0000 H   0  0  0  0  0  0  0  0  0  0  0  0
    1.0511    3.1820    0.0000 H   0  0  0  0  0  0  0  0  0  0  0  0
    2.1117    4.2426    0.0000 H   0  0  0  0  0  0  0  0  0  0  0  0
    4.2331    2.1213    0.0000 H   0  0  0  0  0  0  0  0  0  0  0  0
    5.2937    3.1820    0.0000 H   0  0  0  0  0  0  0  0  0  0  0  0
    3.1724    5.3033    0.0000 H   0  0  0  0  0  0  0  0  0  0  0  0
    4.2331    6.3640    0.0000 H   0  0  0  0  0  0  0  0  0  0  0  0
    6.3544    4.2426    0.0000 H   0  0  0  0  0  0  0  0  0  0  0  0
    7.4150    5.3033    0.0000 H   0  0  0  0  0  0  0  0  0  0  0  0
    5.2937    7.4246    0.0000 H   0  0  0  0  0  0  0  0  0  0  0  0
    6.3544    8.4853    0.0000 H   0  0  0  0  0  0  0  0  0  0  0  0
    8.4757    6.3640    0.0000 H   0  0  0  0  0  0  0  0  0  0  0  0
    9.5364    7.4246    0.0000 H   0  0  0  0  0  0  0  0  0  0  0  0
    7.4150    9.5459    0.0000 H   0  0  0  0  0  0  0  0  0  0  0  0
    9.5364    9.5459    0.0000 H   0  0  0  0  0  0  0  0  0  0  0  0
  1  2  1  0
  1 35  1  0
  1 36  1  0
  1 37  1  0
  2  3  1  0
  2 38  1  0
  2 39  1  0
  3  4  1  0
  3 40  1  0
  3 41  1  0
  4  5  1  0
  4 42  1  0
  4 43  1  0
  5  6  1  0
  5 44  1  0
  5 45  1  0
  6  7  1  0
  6 46  1  0
  6 47  1  0
  7  8  1  0
  7 48  1  0
  7 49  1  0
  8  9  1  0
  8 50  1  0
  8 51  1  0
  9 10  1  0
  9 18  1  0
  9 26  1  0
 10 11  1  0
 10 52  1  0
 10 53  1  0
 11 12  1  0
 11 54  1  0
 11 55  1  0
 12 13  1  0
 12 56  1  0
 12 57  1  0
 13 14  1  0
 13 58  1  0
 13 59  1  0
 14 15  1  0
 14 60  1  0
 14 61  1  0
 15 16  1  0
 15 62  1  0
 15 63  1  0
 16 17  1  0
 16 64  1  0
 16 65  1  0
 17 66  1  0
 17 67  1  0
 17 68  1  0
 18 19  1  0
 18 69  1  0
 18 70  1  0
 19 20  1  0
 19 71  1  0
 19 72  1  0
 20 21  1  0
 20 73  1  0
 20 74  1  0
 21 22  1  0
 21 75  1  0
 21 76  1  0
 22 23  1  0
 22 77  1  0
 22 78  1  0
 23 24  1  0
 23 79  1  0
 23 80  1  0
 24 25  1  0
 24 81  1  0
 24 82  1  0
 25 83  1  0
 25 84  1  0
 25 85  1  0
 26 27  1  0
 26 86  1  0
 26 87  1  0
 27 28  1  0
 27 88  1  0
 27 89  1  0
 28 29  1  0
 28 90  1  0
 28 91  1  0
 29 30  1  0
 29 92  1  0
 29 93  1  0
 30 31  1  0
 30 94  1  0
 30 95  1  0
 31 32  1  0
 31 96  1  0
 31 97  1  0
 32 33  1  0
 32 98  1  0
 32 99  1  0
 33100  1  0
 33101  1  0
 33102  1  0
M  CHG  2   9   1  34  -1
M  END
$$$$

     RDKit          2D

102100  0  0  0  0  0  0  0  0999 V2000
    8.4757   -8.4853    0.0000 C   0  0  0  0  0  0  0  0  0  0  0  0
    7.4150   -7.4246    0.0000 C   0  0  0  0  0  0  0  0  0  0  0  0
    6.3544   -6.3640    0.0000 C   0  0  0  0  0  0  0  0  0  0  0  0
    5.2937   -5.3033    0.0000 C   0  0  0  0  0  0  0  0  0  0  0  0
    4.2331   -4.2426    0.0000 C   0  0  0  0  0  0  0  0  0  0  0  0
    3.1724   -3.1820    0.0000 C   0  0  0  0  0  0  0  0  0  0  0  0
    2.1117   -2.1213    0.0000 C   0  0  0  0  0  0  0  0  0  0  0  0
    1.0511   -1.0607    0.0000 C   0  0  0  0  0  0  0  0  0  0  0  0
   -0.0096    0.0000    0.0000 P   0  0  0  0  0  0  0  0  0  0  0  0
   -1.0702    1.0607    0.0000 C   0  0  0  0  0  0  0  0  0  0  0  0
   -2.1309    2.1213    0.0000 C   0  0  0  0  0  0  0  0  0  0  0  0
   -3.1916    3.1820    0.0000 C   0  0  0  0  0  0  0  0  0  0  0  0
   -4.2522    4.2426    0.0000 C   0  0  0  0  0  0  0  0  0  0  0  0
   -5.3129    5.3033    0.0000 C   0  0  0  0  0  0  0  0  0  0  0  0
   -6.3735    6.3640    0.0000 C   0  0  0  0  0  0  0  0  0  0  0  0
   -7.4342    7.4246    0.0000 C   0  0  0  0  0  0  0  0  0  0  0  0
   -8.4949    8.4853    0.0000 C   0  0  0  0  0  0  0  0  0  0  0  0
   -1.0702   -1.0607    0.0000 C   0  0  0  0  0  0  0  0  0  0  0  0
   -2.1309   -2.1213    0.0000 C   0  0  0  0  0  0  0  0  0  0  0  0
   -3.1916   -3.1820    0.0000 C   0  0  0  0  0  0  0  0  0  0  0  0
   -4.2522   -4.2426    0.0000 C   0  0  0  0  0  0  0  0  0  0  0  0
   -5.3129   -5.3033    0.0000 C   0  0  0  0  0  0  0  0  0  0  0  0
   -6.3735   -6.3640    0.0000 C   0  0  0  0  0  0  0  0  0  0  0  0
   -7.4342   -7.4246    0.0000 C   0  0  0  0  0  0  0  0  0  0  0  0
   -8.4949   -8.4853    0.0000 C   0  0  0  0  0  0  0  0  0  0  0  0
    1.0511    1.0607    0.0000 C   0  0  0  0  0  0  0  0  0  0  0  0
    2.1117    2.1213    0.0000 C   0  0  0  0  0  0  0  0  0  0  0  0
    3.1724    3.1820    0.0000 C   0  0  0  0  0  0  0  0  0  0  0  0
    4.2331    4.2426    0.0000 C   0  0  0  0  0  0  0  0  0  0  0  0
    5.2937    5.3033    0.0000 C   0  0  0  0  0  0  0  0  0  0  0  0
    6.3544    6.3640    0.0000 C   0  0  0  0  0  0  0  0  0  0  0  0
    7.4150    7.4246    0.0000 C   0  0  0  0  0  0  0  0  0  0  0  0
    8.4757    8.4853    0.0000 C   0  0  0  0  0  0  0  0  0  0  0  0
   10.5364    0.0000    0.0000 Br  0  0  0  0  0  0  0  0  0  0  0  0
    7.4150   -9.5459    0.0000 H   0  0  0  0  0  0  0  0  0  0  0  0
    9.5364   -7.4246    0.0000 H   0  0  0  0  0  0  0  0  0  0  0  0
    9.5364   -9.5459    0.0000 H   0  0  0  0  0  0  0  0  0  0  0  0
    6.3544   -8.4853    0.0000 H   0  0  0  0  0  0  0  0  0  0  0  0
    8.4757   -6.3640    0.0000 H   0  0  0  0  0  0  0  0  0  0  0  0
    7.4150   -5.3033    0.0000 H   0  0  0  0  0  0  0  0  0  0  0  0
    5.2937   -7.4246    0.0000 H   0  0  0  0  0  0  0  0  0  0  0  0
    4.2331   -6.3640    0.0000 H   0  0  0  0  0  0  0  0  0  0  0  0
    6.3544   -4.2426    0.0000 H   0  0  0  0  0  0  0  0  0  0  0  0
    5.2937   -3.1820    0.0000 H   0  0  0  0  0  0  0  0  0  0  0  0
    3.1724   -5.3033    0.0000 H   0  0  0  0  0  0  0  0  0  0  0  0
    2.1117   -4.2426    0.0000 H   0  0  0  0  0  0  0  0  0  0  0  0
    4.2331   -2.1213    0.0000 H   0  0  0  0  0  0  0  0  0  0  0  0
    3.1724   -1.0607    0.0000 H   0  0  0  0  0  0  0  0  0  0  0  0
    1.0511   -3.1820    0.0000 H   0  0  0  0  0  0  0  0  0  0  0  0
    0.5058   -1.7586    0.0000 H   0  0  0  0  0  0  0  0  0  0  0  0
    2.2331   -0.1372    0.0000 H   0  0  0  0  0  0  0  0  0  0  0  0
   -0.5250    1.7586    0.0000 H   0  0  0  0  0  0  0  0  0  0  0  0
   -1.7682    0.5154    0.0000 H   0  0  0  0  0  0  0  0  0  0  0  0
   -1.0702    3.1820    0.0000 H   0  0  0  0  0  0  0  0  0  0  0  0
   -3.1916    1.0607    0.0000 H   0  0  0  0  0  0  0  0  0  0  0  0
   -4.2522    2.1213    0.0000 H   0  0  0  0  0  0  0  0  0  0  0  0
   -2.1309    4.2426    0.0000 H   0  0  0  0  0  0  0  0  0  0  0  0
   -3.1916    5.3033    0.0000 H   0  0  0  0  0  0  0  0  0  0  0  0
   -5.3129    3.1820    0.0000 H   0  0  0  0  0  0  0  0  0  0  0  0
   -6.3735    4.2426    0.0000 H   0  0  0  0  0  0  0  0  0  0  0  0
   -4.2522    6.3640    0.0000 H   0  0  0  0  0  0  0  0  0  0  0  0
   -5.3129    7.4246    0.0000 H   0  0  0  0  0  0  0  0  0  0  0  0
   -7.4342    5.3033    0.0000 H   0  0  0  0  0  0  0  0  0  0  0  0
   -8.4949    6.3640    0.0000 H   0  0  0  0  0  0  0  0  0  0  0  0
   -6.3735    8.4853    0.0000 H   0  0  0  0  0  0  0  0  0  0  0  0
   -7.4342    9.5459    0.0000 H   0  0  0  0  0  0  0  0  0  0  0  0
   -9.5555    7.4246    0.0000 H   0  0  0  0  0  0  0  0  0  0  0  0
   -9.5555    9.5459    0.0000 H   0  0  0  0  0  0  0  0  0  0  0  0
   -1.7682   -0.5154    0.0000 H   0  0  0  0  0  0  0  0  0  0  0  0
   -0.5250   -1.7586    0.0000 H   0  0  0  0  0  0  0  0  0  0  0  0
   -3.1916   -1.0607    0.0000 H   0  0  0  0  0  0  0  0  0  0  0  0
   -1.0702   -3.1820    0.0000 H   0  0  0  0  0  0  0  0  0  0  0  0
   -2.1309   -4.2426    0.0000 H   0  0  0  0  0  0  0  0  0  0  0  0
   -4.2522   -2.1213    0.0000 H   0  0  0  0  0  0  0  0  0  0  0  0
   -5.3129   -3.1820    0.0000 H   0  0  0  0  0  0  0  0  0  0  0  0
   -3.1916   -5.3033    0.0000 H   0  0  0  0  0  0  0  0  0  0  0  0
   -4.2522   -6.3640    0.0000 H   0  0  0  0  0  0  0  0  0  0  0  0
   -6.3735   -4.2426    0.0000 H   0  0  0  0  0  0  0  0  0  0  0  0
   -7.4342   -5.3033    0.0000 H   0  0  0  0  0  0  0  0  0  0  0  0
   -5.3129   -7.4246    0.0000 H   0  0  0  0  0  0  0  0  0  0  0  0
   -6.3735   -8.4853    0.0000 H   0  0  0  0  0  0  0  0  0  0  0  0
   -8.4949   -6.3640    0.0000 H   0  0  0  0  0  0  0  0  0  0  0  0
   -9.5555   -7.4246    0.0000 H   0  0  0  0  0  0  0  0  0  0  0  0
   -7.4342   -9.5459    0.0000 H   0  0  0  0  0  0  0  0  0  0  0  0
   -9.5555   -9.5459    0.0000 H   0  0  0  0  0  0  0  0  0  0  0  0
    0.5058    1.7586    0.0000 H   0  0  0  0  0  0  0  0  0  0  0  0
    2.2331    0.1372    0.0000 H   0  0  0  0  0  0  0  0  0  0  0  0
    3.1724    1.0607    0.0000 H   0  0  0  0  0  0  0  0  0  0  0  0
    1.0511    3.1820    0.0000 H   0  0  0  0  0  0  0  0  0  0  0  0
    2.1117    4.2426    0.0000 H   0  0  0  0  0  0  0  0  0  0  0  0
    4.2331    2.1213    0.0000 H   0  0  0  0  0  0  0  0  0  0  0  0
    5.2937    3.1820    0.0000 H   0  0  0  0  0  0  0  0  0  0  0  0
    3.1724    5.3033    0.0000 H   0  0  0  0  0  0  0  0  0  0  0  0
    4.2331    6.3640    0.0000 H   0  0  0  0  0  0  0  0  0  0  0  0
    6.3544    4.2426    0.0000 H   0  0  0  0  0  0  0  0  0  0  0  0
    7.4150    5.3033    0.0000 H   0  0  0  0  0  0  0  0  0  0  0  0
    5.2937    7.4246    0.0000 H   0  0  0  0  0  0  0  0  0  0  0  0
    6.3544    8.4853    0.0000 H   0  0  0  0  0  0  0  0  0  0  0  0
    8.4757    6.3640    0.0000 H   0  0  0  0  0  0  0  0  0  0  0  0
    9.5364    7.4246    0.0000 H   0  0  0  0  0  0  0  0  0  0  0  0
    7.4150    9.5459    0.0000 H   0  0  0  0  0  0  0  0  0  0  0  0
    9.5364    9.5459    0.0000 H   0  0  0  0  0  0  0  0  0  0  0  0
  1  2  1  0
  1 35  1  0
  1 36  1  0
  1 37  1  0
  2  3  1  0
  2 38  1  0
  2 39  1  0
  3  4  1  0
  3 40  1  0
  3 41  1  0
  4  5  1  0
  4 42  1  0
  4 43  1  0
  5  6  1  0
  5 44  1  0
  5 45  1  0
  6  7  1  0
  6 46  1  0
  6 47  1  0
  7  8  1  0
  7 48  1  0
  7 49  1  0
  8  9  1  0
  8 50  1  0
  8 51  1  0
  9 10  1  0
  9 18  1  0
  9 26  1  0
 10 11  1  0
 10 52  1  0
 10 53  1  0
 11 12  1  0
 11 54  1  0
 11 55  1  0
 12 13  1  0
 12 56  1  0
 12 57  1  0
 13 14  1  0
 13 58  1  0
 13 59  1  0
 14 15  1  0
 14 60  1  0
 14 61  1  0
 15 16  1  0
 15 62  1  0
 15 63  1  0
 16 17  1  0
 16 64  1  0
 16 65  1  0
 17 66  1  0
 17 67  1  0
 17 68  1  0
 18 19  1  0
 18 69  1  0
 18 70  1  0
 19 20  1  0
 19 71  1  0
 19 72  1  0
 20 21  1  0
 20 73  1  0
 20 74  1  0
 21 22  1  0
 21 75  1  0
 21 76  1  0
 22 23  1  0
 22 77  1  0
 22 78  1  0
 23 24  1  0
 23 79  1  0
 23 80  1  0
 24 25  1  0
 24 81  1  0
 24 82  1  0
 25 83  1  0
 25 84  1  0
 25 85  1  0
 26 27  1  0
 26 86  1  0
 26 87  1  0
 27 28  1  0
 27 88  1  0
 27 89  1  0
 28 29  1  0
 28 90  1  0
 28 91  1  0
 29 30  1  0
 29 92  1  0
 29 93  1  0
 30 31  1  0
 30 94  1  0
 30 95  1  0
 31 32  1  0
 31 96  1  0
 31 97  1  0
 32 33  1  0
 32 98  1  0
 32 99  1  0
 33100  1  0
 33101  1  0
 33102  1  0
M  CHG  2   9   1  34  -1
M  END
$$$$

     RDKit          2D

 76 75  0  0  0  0  0  0  0  0999 V2000
   13.9756   -0.1459    0.0000 C   0  0  0  0  0  0  0  0  0  0  0  0
   12.4758   -0.1201    0.0000 C   0  0  0  0  0  0  0  0  0  0  0  0
   10.9760   -0.0943    0.0000 C   0  0  0  0  0  0  0  0  0  0  0  0
    9.4763   -0.0685    0.0000 C   0  0  0  0  0  0  0  0  0  0  0  0
    7.9765   -0.0426    0.0000 C   0  0  0  0  0  0  0  0  0  0  0  0
    6.4767   -0.0168    0.0000 C   0  0  0  0  0  0  0  0  0  0  0  0
    4.9769    0.0090    0.0000 C   0  0  0  0  0  0  0  0  0  0  0  0
    3.4772    0.0348    0.0000 C   0  0  0  0  0  0  0  0  0  0  0  0
    1.9774    0.0607    0.0000 C   0  0  0  0  0  0  0  0  0  0  0  0
    0.4776    0.0865    0.0000 C   0  0  0  0  0  0  0  0  0  0  0  0
   -1.0222    0.1123    0.0000 C   0  0  0  0  0  0  0  0  0  0  0  0
   -2.5220    0.1381    0.0000 C   0  0  0  0  0  0  0  0  0  0  0  0
   -4.0217    0.1640    0.0000 C   0  0  0  0  0  0  0  0  0  0  0  0
   -5.5215    0.1898    0.0000 C   0  0  0  0  0  0  0  0  0  0  0  0
   -7.0213    0.2156    0.0000 C   0  0  0  0  0  0  0  0  0  0  0  0
   -8.5211    0.2414    0.0000 C   0  0  0  0  0  0  0  0  0  0  0  0
  -10.0208    0.2673    0.0000 N   0  0  0  0  0  0  0  0  0  0  0  0
  -10.8815    1.4958    0.0000 C   0  0  0  0  0  0  0  0  0  0  0  0
  -12.3158    1.0569    0.0000 C   0  0  0  0  0  0  0  0  0  0  0  0
  -12.3417   -0.4429    0.0000 N   0  0  0  0  0  0  0  0  0  0  0  0
  -10.9233   -0.9309    0.0000 C   0  0  0  0  0  0  0  0  0  0  0  0
  -13.5702   -1.3035    0.0000 C   0  0  0  0  0  0  0  0  0  0  0  0
    2.5981    5.2132    0.0000 C   0  0  0  0  0  0  0  0  0  0  0  0
    1.8481    3.9142    0.0000 F   0  0  0  0  0  0  0  0  0  0  0  0
    3.3481    6.5123    0.0000 F   0  0  0  0  0  0  0  0  0  0  0  0
    3.8971    4.4632    0.0000 F   0  0  0  0  0  0  0  0  0  0  0  0
    1.2990    5.9632    0.0000 S   0  0  0  0  0  0  0  0  0  0  0  0
    2.0490    7.2623    0.0000 O   0  0  0  0  0  0  0  0  0  0  0  0
    0.5490    4.6642    0.0000 O   0  0  0  0  0  0  0  0  0  0  0  0
    0.0000    6.7132    0.0000 N   0  0  0  0  0  0  0  0  0  0  0  0
   -1.2990    5.9632    0.0000 S   0  0  0  0  0  0  0  0  0  0  0  0
   -0.5490    4.6642    0.0000 O   0  0  0  0  0  0  0  0  0  0  0  0
   -2.0490    7.2623    0.0000 O   0  0  0  0  0  0  0  0  0  0  0  0
   -2.5981    5.2132    0.0000 C   0  0  0  0  0  0  0  0  0  0  0  0
   -1.8481    3.9142    0.0000 F   0  0  0  0  0  0  0  0  0  0  0  0
   -3.3481    6.5123    0.0000 F   0  0  0  0  0  0  0  0  0  0  0  0
   -3.8971    4.4632    0.0000 F   0  0  0  0  0  0  0  0  0  0  0  0
   14.0014    1.3538    0.0000 H   0  0  0  0  0  0  0  0  0  0  0  0
   13.9498   -1.6457    0.0000 H   0  0  0  0  0  0  0  0  0  0  0  0
   15.4754   -0.1718    0.0000 H   0  0  0  0  0  0  0  0  0  0  0  0
   12.4500   -1.6199    0.0000 H   0  0  0  0  0  0  0  0  0  0  0  0
   12.5017    1.3797    0.0000 H   0  0  0  0  0  0  0  0  0  0  0  0
   11.0019    1.4055    0.0000 H   0  0  0  0  0  0  0  0  0  0  0  0
   10.9502   -1.5941    0.0000 H   0  0  0  0  0  0  0  0  0  0  0  0
    9.4504   -1.5682    0.0000 H   0  0  0  0  0  0  0  0  0  0  0  0
    9.5021    1.4313    0.0000 H   0  0  0  0  0  0  0  0  0  0  0  0
    8.0023    1.4571    0.0000 H   0  0  0  0  0  0  0  0  0  0  0  0
    7.9507   -1.5424    0.0000 H   0  0  0  0  0  0  0  0  0  0  0  0
    6.4509   -1.5166    0.0000 H   0  0  0  0  0  0  0  0  0  0  0  0
    6.5025    1.4830    0.0000 H   0  0  0  0  0  0  0  0  0  0  0  0
    5.0028    1.5088    0.0000 H   0  0  0  0  0  0  0  0  0  0  0  0
    4.9511   -1.4908    0.0000 H   0  0  0  0  0  0  0  0  0  0  0  0
    3.4513   -1.4649    0.0000 H   0  0  0  0  0  0  0  0  0  0  0  0
    3.5030    1.5346    0.0000 H   0  0  0  0  0  0  0  0  0  0  0  0
    2.0032    1.5604    0.0000 H   0  0  0  0  0  0  0  0  0  0  0  0
    1.9516   -1.4391    0.0000 H   0  0  0  0  0  0  0  0  0  0  0  0
    0.4518   -1.4133    0.0000 H   0  0  0  0  0  0  0  0  0  0  0  0
    0.5034    1.5863    0.0000 H   0  0  0  0  0  0  0  0  0  0  0  0
   -0.9963    1.6121    0.0000 H   0  0  0  0  0  0  0  0  0  0  0  0
   -1.0480   -1.3875    0.0000 H   0  0  0  0  0  0  0  0  0  0  0  0
   -2.5478   -1.3616    0.0000 H   0  0  0  0  0  0  0  0  0  0  0  0
   -2.4961    1.6379    0.0000 H   0  0  0  0  0  0  0  0  0  0  0  0
   -3.9959    1.6637    0.0000 H   0  0  0  0  0  0  0  0  0  0  0  0
   -4.0476   -1.3358    0.0000 H   0  0  0  0  0  0  0  0  0  0  0  0
   -5.5473   -1.3100    0.0000 H   0  0  0  0  0  0  0  0  0  0  0  0
   -5.4957    1.6896    0.0000 H   0  0  0  0  0  0  0  0  0  0  0  0
   -6.9955    1.7154    0.0000 H   0  0  0  0  0  0  0  0  0  0  0  0
   -7.0471   -1.2842    0.0000 H   0  0  0  0  0  0  0  0  0  0  0  0
   -8.5469   -1.2583    0.0000 H   0  0  0  0  0  0  0  0  0  0  0  0
   -8.4952    1.7412    0.0000 H   0  0  0  0  0  0  0  0  0  0  0  0
  -10.3935    2.9142    0.0000 H   0  0  0  0  0  0  0  0  0  0  0  0
  -13.5140    1.9593    0.0000 H   0  0  0  0  0  0  0  0  0  0  0  0
  -10.4844   -2.3653    0.0000 H   0  0  0  0  0  0  0  0  0  0  0  0
  -14.4309   -0.0750    0.0000 H   0  0  0  0  0  0  0  0  0  0  0  0
  -12.7095   -2.5321    0.0000 H   0  0  0  0  0  0  0  0  0  0  0  0
  -14.7987   -2.1642    0.0000 H   0  0  0  0  0  0  0  0  0  0  0  0
  1  2  1  0
  1 38  1  0
  1 39  1  0
  1 40  1  0
  2  3  1  0
  2 41  1  0
  2 42  1  0
  3  4  1  0
  3 43  1  0
  3 44  1  0
  4  5  1  0
  4 45  1  0
  4 46  1  0
  5  6  1  0
  5 47  1  0
  5 48  1  0
  6  7  1  0
  6 49  1  0
  6 50  1  0
  7  8  1  0
  7 51  1  0
  7 52  1  0
  8  9  1  0
  8 53  1  0
  8 54  1  0
  9 10  1  0
  9 55  1  0
  9 56  1  0
 10 11  1  0
 10 57  1  0
 10 58  1  0
 11 12  1  0
 11 59  1  0
 11 60  1  0
 12 13  1  0
 12 61  1  0
 12 62  1  0
 13 14  1  0
 13 63  1  0
 13 64  1  0
 14 15  1  0
 14 65  1  0
 14 66  1  0
 15 16  1  0
 15 67  1  0
 15 68  1  0
 16 17  1  0
 16 69  1  0
 16 70  1  0
 17 18  1  0
 17 21  1  0
 18 19  2  0
 18 71  1  0
 19 20  1  0
 19 72  1  0
 20 21  2  0
 20 22  1  0
 21 73  1  0
 22 74  1  0
 22 75  1  0
 22 76  1  0
 23 24  1  0
 23 25  1  0
 23 26  1  0
 23 27  1  0
 27 28  2  0
 27 29  2  0
 27 30  1  0
 30 31  1  0
 31 32  2  0
 31 33  2  0
 31 34  1  0
 34 35  1  0
 34 36  1  0
 34 37  1  0
M  CHG  2  20   1  30  -1
M  END
$$$$

     RDKit          2D

 60 60  0  0  0  0  0  0  0  0999 V2000
   12.7864   -0.0109    0.0000 C   0  0  0  0  0  0  0  0  0  0  0  0
   11.2864   -0.0082    0.0000 C   0  0  0  0  0  0  0  0  0  0  0  0
    9.7864   -0.0056    0.0000 C   0  0  0  0  0  0  0  0  0  0  0  0
    8.2864   -0.0030    0.0000 C   0  0  0  0  0  0  0  0  0  0  0  0
    6.7864   -0.0004    0.0000 C   0  0  0  0  0  0  0  0  0  0  0  0
    5.2864    0.0022    0.0000 C   0  0  0  0  0  0  0  0  0  0  0  0
    3.7864    0.0048    0.0000 C   0  0  0  0  0  0  0  0  0  0  0  0
    2.2864    0.0074    0.0000 C   0  0  0  0  0  0  0  0  0  0  0  0
    0.7864    0.0100    0.0000 C   0  0  0  0  0  0  0  0  0  0  0  0
   -0.7136    0.0127    0.0000 C   0  0  0  0  0  0  0  0  0  0  0  0
   -2.2136    0.0153    0.0000 C   0  0  0  0  0  0  0  0  0  0  0  0
   -3.7136    0.0179    0.0000 C   0  0  0  0  0  0  0  0  0  0  0  0
   -5.2136    0.0205    0.0000 N   0  0  0  0  0  0  0  0  0  0  0  0
   -5.2110    1.5205    0.0000 C   0  0  0  0  0  0  0  0  0  0  0  0
   -5.2162   -1.4795    0.0000 C   0  0  0  0  0  0  0  0  0  0  0  0
   -6.7136    0.0231    0.0000 C   0  0  0  0  0  0  0  0  0  0  0  0
   -8.2136    0.0257    0.0000 C   0  0  0  0  0  0  0  0  0  0  0  0
   -8.9658   -1.2720    0.0000 C   0  0  0  0  0  0  0  0  0  0  0  0
  -10.4658   -1.2694    0.0000 C   0  0  0  0  0  0  0  0  0  0  0  0
  -11.2136    0.0309    0.0000 C   0  0  0  0  0  0  0  0  0  0  0  0
  -10.4613    1.3287    0.0000 C   0  0  0  0  0  0  0  0  0  0  0  0
   -8.9613    1.3261    0.0000 C   0  0  0  0  0  0  0  0  0  0  0  0
   12.7838   -1.5109    0.0000 H   0  0  0  0  0  0  0  0  0  0  0  0
   12.7890    1.4891    0.0000 H   0  0  0  0  0  0  0  0  0  0  0  0
   14.2864   -0.0135    0.0000 H   0  0  0  0  0  0  0  0  0  0  0  0
   11.2890    1.4918    0.0000 H   0  0  0  0  0  0  0  0  0  0  0  0
   11.2838   -1.5082    0.0000 H   0  0  0  0  0  0  0  0  0  0  0  0
    9.7838   -1.5056    0.0000 H   0  0  0  0  0  0  0  0  0  0  0  0
    9.7890    1.4944    0.0000 H   0  0  0  0  0  0  0  0  0  0  0  0
    8.2890    1.4970    0.0000 H   0  0  0  0  0  0  0  0  0  0  0  0
    8.2838   -1.5030    0.0000 H   0  0  0  0  0  0  0  0  0  0  0  0
    6.7838   -1.5004    0.0000 H   0  0  0  0  0  0  0  0  0  0  0  0
    6.7890    1.4996    0.0000 H   0  0  0  0  0  0  0  0  0  0  0  0
    5.2890    1.5022    0.0000 H   0  0  0  0  0  0  0  0  0  0  0  0
    5.2838   -1.4978    0.0000 H   0  0  0  0  0  0  0  0  0  0  0  0
    3.7838   -1.4952    0.0000 H   0  0  0  0  0  0  0  0  0  0  0  0
    3.7890    1.5048    0.0000 H   0  0  0  0  0  0  0  0  0  0  0  0
    2.2890    1.5074    0.0000 H   0  0  0  0  0  0  0  0  0  0  0  0
    2.2838   -1.4926    0.0000 H   0  0  0  0  0  0  0  0  0  0  0  0
    0.7838   -1.4900    0.0000 H   0  0  0  0  0  0  0  0  0  0  0  0
    0.7890    1.5100    0.0000 H   0  0  0  0  0  0  0  0  0  0  0  0
   -0.7110    1.5126    0.0000 H   0  0  0  0  0  0  0  0  0  0  0  0
   -0.7162   -1.4873    0.0000 H   0  0  0  0  0  0  0  0  0  0  0  0
   -2.2162   -1.4847    0.0000 H   0  0  0  0  0  0  0  0  0  0  0  0
   -2.2110    1.5153    0.0000 H   0  0  0  0  0  0  0  0  0  0  0  0
   -3.6071   -0.8614    0.0000 H   0  0  0  0  0  0  0  0  0  0  0  0
   -3.6041    0.8968    0.0000 H   0  0  0  0  0  0  0  0  0  0  0  0
   -4.3316    1.6269    0.0000 H   0  0  0  0  0  0  0  0  0  0  0  0
   -6.0899    1.6300    0.0000 H   0  0  0  0  0  0  0  0  0  0  0  0
   -5.2083    3.0205    0.0000 H   0  0  0  0  0  0  0  0  0  0  0  0
   -4.3372   -1.5890    0.0000 H   0  0  0  0  0  0  0  0  0  0  0  0
   -6.7053   -1.6598    0.0000 H   0  0  0  0  0  0  0  0  0  0  0  0
   -5.2188   -2.9795    0.0000 H   0  0  0  0  0  0  0  0  0  0  0  0
   -6.8200    0.9024    0.0000 H   0  0  0  0  0  0  0  0  0  0  0  0
   -6.8990   -1.4654    0.0000 H   0  0  0  0  0  0  0  0  0  0  0  0
   -8.2181   -2.5724    0.0000 H   0  0  0  0  0  0  0  0  0  0  0  0
  -11.2181   -2.5671    0.0000 H   0  0  0  0  0  0  0  0  0  0  0  0
  -12.7136    0.0335    0.0000 H   0  0  0  0  0  0  0  0  0  0  0  0
  -11.2090    2.6290    0.0000 H   0  0  0  0  0  0  0  0  0  0  0  0
   -8.2090    2.6238    0.0000 H   0  0  0  0  0  0  0  0  0  0  0  0
  1  2  1  0
  1 23  1  0
  1 24  1  0
  1 25  1  0
  2  3  1  0
  2 26  1  0
  2 27  1  0
  3  4  1  0
  3 28  1  0
  3 29  1  0
  4  5  1  0
  4 30  1  0
  4 31  1  0
  5  6  1  0
  5 32  1  0
  5 33  1  0
  6  7  1  0
  6 34  1  0
  6 35  1  0
  7  8  1  0
  7 36  1  0
  7 37  1  0
  8  9  1  0
  8 38  1  0
  8 39  1  0
  9 10  1  0
  9 40  1  0
  9 41  1  0
 10 11  1  0
 10 42  1  0
 10 43  1  0
 11 12  1  0
 11 44  1  0
 11 45  1  0
 12 13  1  0
 12 46  1  0
 12 47  1  0
 13 14  1  0
 13 15  1  0
 13 16  1  0
 14 48  1  0
 14 49  1  0
 14 50  1  0
 15 51  1  0
 15 52  1  0
 15 53  1  0
 16 17  1  0
 16 54  1  0
 16 55  1  0
 17 18  2  0
 17 22  1  0
 18 19  1  0
 18 56  1  0
 19 20  2  0
 19 57  1  0
 20 21  1  0
 20 58  1  0
 21 22  2  0
 21 59  1  0
 22 60  1  0
M  CHG  1  13   1
M  END
$$$$

     RDKit          2D

 78 79  0  0  0  0  0  0  0  0999 V2000
   -6.1233    1.0804    0.0000 C   0  0  0  0  0  0  0  0  0  0  0  0
   -4.7860    0.4012    0.0000 C   0  0  0  0  0  0  0  0  0  0  0  0
   -3.4486   -0.2781    0.0000 C   0  0  0  0  0  0  0  0  0  0  0  0
   -2.1916    0.5404    0.0000 C   0  0  0  0  0  0  0  0  0  0  0  0
   -2.2720    2.0383    0.0000 C   0  0  0  0  0  0  0  0  0  0  0  0
   -1.0151    2.8568    0.0000 C   0  0  0  0  0  0  0  0  0  0  0  0
   -1.0955    4.3546    0.0000 C   0  0  0  0  0  0  0  0  0  0  0  0
   -2.4328    5.0339    0.0000 C   0  0  0  0  0  0  0  0  0  0  0  0
   -3.6898    4.2154    0.0000 C   0  0  0  0  0  0  0  0  0  0  0  0
   -3.6094    2.7175    0.0000 C   0  0  0  0  0  0  0  0  0  0  0  0
   -0.8543   -0.1389    0.0000 C   0  0  0  0  0  0  0  0  0  0  0  0
   -0.7739   -1.6367    0.0000 C   0  0  0  0  0  0  0  0  0  0  0  0
    0.5635   -2.3160    0.0000 C   0  0  0  0  0  0  0  0  0  0  0  0
    1.8205   -1.4975    0.0000 C   0  0  0  0  0  0  0  0  0  0  0  0
    1.7401    0.0004    0.0000 C   0  0  0  0  0  0  0  0  0  0  0  0
    0.4027    0.6797    0.0000 C   0  0  0  0  0  0  0  0  0  0  0  0
    3.1579   -2.1768    0.0000 O   0  0  0  0  0  0  0  0  0  0  0  0
    4.4148   -1.3582    0.0000 C   0  0  0  0  0  0  0  0  0  0  0  0
    5.6718   -0.5397    0.0000 C   0  0  0  0  0  0  0  0  0  0  0  0
    6.9288    0.2789    0.0000 N   0  0  0  0  0  0  0  0  0  0  0  0
    6.8484    1.7767    0.0000 C   0  0  0  0  0  0  0  0  0  0  0  0
    8.2661   -0.4004    0.0000 C   0  0  0  0  0  0  0  0  0  0  0  0
   -3.3682   -1.7760    0.0000 C   0  0  0  0  0  0  0  0  0  0  0  0
   -4.6252   -2.5945    0.0000 C   0  0  0  0  0  0  0  0  0  0  0  0
   -4.5448   -4.0924    0.0000 C   0  0  0  0  0  0  0  0  0  0  0  0
   -3.2074   -4.7717    0.0000 C   0  0  0  0  0  0  0  0  0  0  0  0
   -1.9504   -3.9531    0.0000 C   0  0  0  0  0  0  0  0  0  0  0  0
   -2.0308   -2.4553    0.0000 C   0  0  0  0  0  0  0  0  0  0  0  0
   -1.4721    9.7020    0.0000 C   0  0  0  0  0  0  0  0  0  0  0  0
   -2.9669    9.5774    0.0000 C   0  0  0  0  0  0  0  0  0  0  0  0
   -3.8222   10.8096    0.0000 O   0  0  0  0  0  0  0  0  0  0  0  0
   -3.6063    8.2205    0.0000 O   0  0  0  0  0  0  0  0  0  0  0  0
    0.0228    9.8267    0.0000 C   0  0  0  0  0  0  0  0  0  0  0  0
    1.5176    9.9513    0.0000 C   0  0  0  0  0  0  0  0  0  0  0  0
    3.0124   10.0760    0.0000 C   0  0  0  0  0  0  0  0  0  0  0  0
    3.6518   11.4328    0.0000 O   0  0  0  0  0  0  0  0  0  0  0  0
    3.8677    8.8437    0.0000 O   0  0  0  0  0  0  0  0  0  0  0  0
   -0.1019   11.3215    0.0000 C   0  0  0  0  0  0  0  0  0  0  0  0
    1.0169   12.3207    0.0000 O   0  0  0  0  0  0  0  0  0  0  0  0
   -1.4588   11.9610    0.0000 O   0  0  0  0  0  0  0  0  0  0  0  0
    0.1474    8.3319    0.0000 O   0  0  0  0  0  0  0  0  0  0  0  0
   -6.8026   -0.2569    0.0000 H   0  0  0  0  0  0  0  0  0  0  0  0
   -5.7093    2.2227    0.0000 H   0  0  0  0  0  0  0  0  0  0  0  0
   -7.4607    1.7597    0.0000 H   0  0  0  0  0  0  0  0  0  0  0  0
   -5.4653   -0.9362    0.0000 H   0  0  0  0  0  0  0  0  0  0  0  0
   -4.4133    1.4292    0.0000 H   0  0  0  0  0  0  0  0  0  0  0  0
    0.3951    2.3456    0.0000 H   0  0  0  0  0  0  0  0  0  0  0  0
    0.1615    5.1732    0.0000 H   0  0  0  0  0  0  0  0  0  0  0  0
   -2.5132    6.5318    0.0000 H   0  0  0  0  0  0  0  0  0  0  0  0
   -5.0272    4.8947    0.0000 H   0  0  0  0  0  0  0  0  0  0  0  0
   -4.4465    2.4282    0.0000 H   0  0  0  0  0  0  0  0  0  0  0  0
   -1.3168   -2.2205    0.0000 H   0  0  0  0  0  0  0  0  0  0  0  0
    0.6439   -3.8139    0.0000 H   0  0  0  0  0  0  0  0  0  0  0  0
    2.9971    0.8189    0.0000 H   0  0  0  0  0  0  0  0  0  0  0  0
    0.5055    2.1761    0.0000 H   0  0  0  0  0  0  0  0  0  0  0  0
    5.2334   -2.6152    0.0000 H   0  0  0  0  0  0  0  0  0  0  0  0
    3.5963   -0.1012    0.0000 H   0  0  0  0  0  0  0  0  0  0  0  0
    4.8532    0.7173    0.0000 H   0  0  0  0  0  0  0  0  0  0  0  0
    6.4903   -1.7966    0.0000 H   0  0  0  0  0  0  0  0  0  0  0  0
    8.3462    1.8571    0.0000 H   0  0  0  0  0  0  0  0  0  0  0  0
    5.3505    1.6963    0.0000 H   0  0  0  0  0  0  0  0  0  0  0  0
    6.7680    3.2746    0.0000 H   0  0  0  0  0  0  0  0  0  0  0  0
    8.9454    0.9370    0.0000 H   0  0  0  0  0  0  0  0  0  0  0  0
    7.5868   -1.7378    0.0000 H   0  0  0  0  0  0  0  0  0  0  0  0
    9.6035   -1.0797    0.0000 H   0  0  0  0  0  0  0  0  0  0  0  0
   -5.9625   -1.9152    0.0000 H   0  0  0  0  0  0  0  0  0  0  0  0
   -5.8017   -4.9109    0.0000 H   0  0  0  0  0  0  0  0  0  0  0  0
   -3.1270   -6.2695    0.0000 H   0  0  0  0  0  0  0  0  0  0  0  0
   -0.6131   -4.6324    0.0000 H   0  0  0  0  0  0  0  0  0  0  0  0
   -0.6131   -1.9652    0.0000 H   0  0  0  0  0  0  0  0  0  0  0  0
   -1.9547   11.1223    0.0000 H   0  0  0  0  0  0  0  0  0  0  0  0
   -1.3474    8.2072    0.0000 H   0  0  0  0  0  0  0  0  0  0  0  0
   -5.1012    8.0959    0.0000 H   0  0  0  0  0  0  0  0  0  0  0  0
    1.5761   11.4502    0.0000 H   0  0  0  0  0  0  0  0  0  0  0  0
    1.8235    8.4829    0.0000 H   0  0  0  0  0  0  0  0  0  0  0  0
    5.3625    8.9684    0.0000 H   0  0  0  0  0  0  0  0  0  0  0  0
   -1.5834   13.4558    0.0000 H   0  0  0  0  0  0  0  0  0  0  0  0
    1.4162    7.5318    0.0000 H   0  0  0  0  0  0  0  0  0  0  0  0
  1  2  1  0
  1 42  1  0
  1 43  1  0
  1 44  1  0
  2  3  1  0
  2 45  1  0
  2 46  1  0
  3  4  2  0
  3 23  1  0
  4  5  1  0
  4 11  1  0
  5  6  2  0
  5 10  1  0
  6  7  1  0
  6 47  1  0
  7  8  2  0
  7 48  1  0
  8  9  1  0
  8 49  1  0
  9 10  2  0
  9 50  1  0
 10 51  1  0
 11 12  2  0
 11 16  1  0
 12 13  1  0
 12 52  1  0
 13 14  2  0
 13 53  1  0
 14 15  1  0
 14 17  1  0
 15 16  2  0
 15 54  1  0
 16 55  1  0
 17 18  1  0
 18 19  1  0
 18 56  1  0
 18 57  1  0
 19 20  1  0
 19 58  1  0
 19 59  1  0
 20 21  1  0
 20 22  1  0
 21 60  1  0
 21 61  1  0
 21 62  1  0
 22 63  1  0
 22 64  1  0
 22 65  1  0
 23 24  2  0
 23 28  1  0
 24 25  1  0
 24 66  1  0
 25 26  2  0
 25 67  1  0
 26 27  1  0
 26 68  1  0
 27 28  2  0
 27 69  1  0
 28 70  1  0
 29 30  1  0
 29 33  1  0
 29 71  1  0
 29 72  1  0
 30 31  2  0
 30 32  1  0
 32 73  1  0
 33 34  1  0
 33 38  1  0
 33 41  1  0
 34 35  1  0
 34 74  1  0
 34 75  1  0
 35 36  2  0
 35 37  1  0
 37 76  1  0
 38 39  2  0
 38 40  1  0
 40 77  1  0
 41 78  1  0
M  END
$$$$

     RDKit          2D

 54 61  0  0  1  0  0  0  0  0999 V2000
    2.5404   -0.5094    0.0000 C   0  0  0  0  0  0  0  0  0  0  0  0
    1.4703   -1.5606    0.0000 C   0  0  0  0  0  0  0  0  0  0  0  0
    1.6918   -3.0442    0.0000 C   0  0  0  0  0  0  0  0  0  0  0  0
    0.3493   -3.7133    0.0000 C   0  0  0  0  0  0  0  0  0  0  0  0
   -0.7019   -2.6433    0.0000 C   0  0  0  0  0  0  0  0  0  0  0  0
   -0.0090   -1.3128    0.0000 O   0  0  0  0  0  0  0  0  0  0  0  0
   -1.6529   -1.4833    0.0000 N   0  0  0  0  0  0  0  0  0  0  0  0
   -3.1449   -1.6380    0.0000 C   0  0  0  0  0  0  0  0  0  0  0  0
   -4.0283   -2.8503    0.0000 C   0  0  0  0  0  0  0  0  0  0  0  0
   -5.5199   -2.6914    0.0000 C   0  0  0  0  0  0  0  0  0  0  0  0
   -6.1281   -1.3203    0.0000 C   0  0  0  0  0  0  0  0  0  0  0  0
   -5.2447   -0.1080    0.0000 C   0  0  0  0  0  0  0  0  0  0  0  0
   -3.7531   -0.2668    0.0000 C   0  0  0  0  0  0  0  0  0  0  0  0
   -2.6370    0.7353    0.0000 C   0  0  0  0  0  0  0  0  0  0  0  0
   -2.4085    2.3006    0.0000 C   0  0  0  0  0  0  0  0  0  0  0  0
   -1.0660    2.9697    0.0000 C   0  0  0  0  0  0  0  0  0  0  0  0
    0.1847    2.1416    0.0000 C   0  0  0  0  0  0  0  0  0  0  0  0
    1.6568    2.4294    0.0000 C   0  0  0  0  0  0  0  0  0  0  0  0
    2.4279    3.7160    0.0000 C   0  0  0  0  0  0  0  0  0  0  0  0
    3.9277    3.6915    0.0000 C   0  0  0  0  0  0  0  0  0  0  0  0
    4.6564    2.3804    0.0000 C   0  0  0  0  0  0  0  0  0  0  0  0
    3.8852    1.0938    0.0000 C   0  0  0  0  0  0  0  0  0  0  0  0
    2.3854    1.1183    0.0000 C   0  0  0  0  0  0  0  0  0  0  0  0
    1.3636    0.0202    0.0000 N   0  0  0  0  0  0  0  0  0  0  0  0
    0.0035    0.6526    0.0000 C   0  0  0  0  0  0  0  0  0  0  0  0
   -1.3390   -0.0165    0.0000 C   0  0  0  0  0  0  0  0  0  0  0  0
   -1.2875    4.4533    0.0000 C   0  0  0  0  0  0  0  0  0  0  0  0
   -2.7669    4.7010    0.0000 N   0  0  0  0  0  0  0  0  0  0  0  0
   -3.4598    3.3706    0.0000 C   0  0  0  0  0  0  0  0  0  0  0  0
   -4.9433    3.1491    0.0000 O   0  0  0  0  0  0  0  0  0  0  0  0
    3.1441   -2.6688    0.0000 C   0  0  0  0  0  0  0  0  0  0  0  0
    4.5964   -2.2935    0.0000 O   0  0  0  0  0  0  0  0  0  0  0  0
    2.2169   -4.4493    0.0000 O   0  0  0  0  0  0  0  0  0  0  0  0
    3.7142   -1.4433    0.0000 H   0  0  0  0  0  0  0  0  0  0  0  0
    2.1359    0.1775    0.0000 H   0  0  0  0  0  0  0  0  0  0  0  0
    3.8330    0.2516    0.0000 H   0  0  0  0  0  0  0  0  0  0  0  0
    1.1551   -4.9785    0.0000 H   0  0  0  0  0  0  0  0  0  0  0  0
   -0.8247   -4.6469    0.0000 H   0  0  0  0  0  0  0  0  0  0  0  0
   -2.1854   -2.8647    0.0000 H   0  0  0  0  0  0  0  0  0  0  0  0
   -3.4201   -4.2215    0.0000 H   0  0  0  0  0  0  0  0  0  0  0  0
   -6.4032   -3.9037    0.0000 H   0  0  0  0  0  0  0  0  0  0  0  0
   -7.6196   -1.1614    0.0000 H   0  0  0  0  0  0  0  0  0  0  0  0
   -5.8529    1.2632    0.0000 H   0  0  0  0  0  0  0  0  0  0  0  0
    1.6993    5.0272    0.0000 H   0  0  0  0  0  0  0  0  0  0  0  0
    4.6989    4.9781    0.0000 H   0  0  0  0  0  0  0  0  0  0  0  0
    6.1562    2.3558    0.0000 H   0  0  0  0  0  0  0  0  0  0  0  0
    4.6139   -0.2174    0.0000 H   0  0  0  0  0  0  0  0  0  0  0  0
    0.2110    4.5185    0.0000 H   0  0  0  0  0  0  0  0  0  0  0  0
   -1.1957    5.9504    0.0000 H   0  0  0  0  0  0  0  0  0  0  0  0
   -3.4360    6.0435    0.0000 H   0  0  0  0  0  0  0  0  0  0  0  0
    3.3143   -1.1785    0.0000 H   0  0  0  0  0  0  0  0  0  0  0  0
    3.6937   -4.0645    0.0000 H   0  0  0  0  0  0  0  0  0  0  0  0
    5.6476   -3.3635    0.0000 H   0  0  0  0  0  0  0  0  0  0  0  0
    3.6551   -4.8755    0.0000 H   0  0  0  0  0  0  0  0  0  0  0  0
  1 34  1  0
  1 35  1  0
  1 36  1  0
  2  3  1  0
  2  6  1  0
  2 24  1  0
  2  1  1  1
  3  4  1  0
  3 33  1  6
  3 31  1  0
  4  5  1  0
  4 37  1  0
  4 38  1  0
  5  6  1  0
  5  7  1  0
  5 39  1  1
  7  8  1  0
  7 26  1  0
  8  9  1  0
  8 13  2  0
  9 10  2  0
  9 40  1  0
 10 11  1  0
 10 41  1  0
 11 12  2  0
 11 42  1  0
 12 13  1  0
 12 43  1  0
 13 14  1  0
 14 15  1  0
 14 26  2  0
 15 16  2  0
 15 29  1  0
 16 17  1  0
 16 27  1  0
 17 18  1  0
 17 25  2  0
 18 19  1  0
 18 23  2  0
 19 20  2  0
 19 44  1  0
 20 21  1  0
 20 45  1  0
 21 22  2  0
 21 46  1  0
 22 23  1  0
 22 47  1  0
 23 24  1  0
 24 25  1  0
 25 26  1  0
 27 28  1  0
 27 48  1  0
 27 49  1  0
 28 29  1  0
 28 50  1  0
 29 30  2  0
 31 32  1  0
 31 51  1  0
 31 52  1  0
 32 53  1  0
 33 54  1  0
M  END
$$$$

     RDKit          2D

 61 60  0  0  0  0  0  0  0  0999 V2000
   13.7000    0.0000    0.0000 C   0  0  0  0  0  0  0  0  0  0  0  0
   12.2000    0.0000    0.0000 C   0  0  0  0  0  0  0  0  0  0  0  0
   10.7000    0.0000    0.0000 C   0  0  0  0  0  0  0  0  0  0  0  0
    9.2000    0.0000    0.0000 C   0  0  0  0  0  0  0  0  0  0  0  0
    7.7000    0.0000    0.0000 C   0  0  0  0  0  0  0  0  0  0  0  0
    6.2000    0.0000    0.0000 C   0  0  0  0  0  0  0  0  0  0  0  0
    4.7000    0.0000    0.0000 C   0  0  0  0  0  0  0  0  0  0  0  0
    3.2000    0.0000    0.0000 C   0  0  0  0  0  0  0  0  0  0  0  0
    1.7000    0.0000    0.0000 C   0  0  0  0  0  0  0  0  0  0  0  0
    0.2000    0.0000    0.0000 C   0  0  0  0  0  0  0  0  0  0  0  0
   -1.3000    0.0000    0.0000 C   0  0  0  0  0  0  0  0  0  0  0  0
   -2.8000    0.0000    0.0000 C   0  0  0  0  0  0  0  0  0  0  0  0
   -4.3000    0.0000    0.0000 C   0  0  0  0  0  0  0  0  0  0  0  0
   -5.8000    0.0000    0.0000 C   0  0  0  0  0  0  0  0  0  0  0  0
   -7.3000    0.0000    0.0000 C   0  0  0  0  0  0  0  0  0  0  0  0
   -8.8000    0.0000    0.0000 C   0  0  0  0  0  0  0  0  0  0  0  0
  -10.3000    0.0000    0.0000 N   0  0  0  0  0  0  0  0  0  0  0  0
  -11.0500   -1.2990    0.0000 C   0  0  0  0  0  0  0  0  0  0  0  0
  -12.5500   -1.2990    0.0000 C   0  0  0  0  0  0  0  0  0  0  0  0
  -13.3000    0.0000    0.0000 C   0  0  0  0  0  0  0  0  0  0  0  0
  -12.5500    1.2990    0.0000 C   0  0  0  0  0  0  0  0  0  0  0  0
  -11.0500    1.2990    0.0000 C   0  0  0  0  0  0  0  0  0  0  0  0
    0.0000    3.5981    0.0000 Br  0  0  0  0  0  0  0  0  0  0  0  0
   13.7000    1.5000    0.0000 H   0  0  0  0  0  0  0  0  0  0  0  0
   13.7000   -1.5000    0.0000 H   0  0  0  0  0  0  0  0  0  0  0  0
   15.2000    0.0000    0.0000 H   0  0  0  0  0  0  0  0  0  0  0  0
   12.2000   -1.5000    0.0000 H   0  0  0  0  0  0  0  0  0  0  0  0
   12.2000    1.5000    0.0000 H   0  0  0  0  0  0  0  0  0  0  0  0
   10.7000    1.5000    0.0000 H   0  0  0  0  0  0  0  0  0  0  0  0
   10.7000   -1.5000    0.0000 H   0  0  0  0  0  0  0  0  0  0  0  0
    9.2000   -1.5000    0.0000 H   0  0  0  0  0  0  0  0  0  0  0  0
    9.2000    1.5000    0.0000 H   0  0  0  0  0  0  0  0  0  0  0  0
    7.7000    1.5000    0.0000 H   0  0  0  0  0  0  0  0  0  0  0  0
    7.7000   -1.5000    0.0000 H   0  0  0  0  0  0  0  0  0  0  0  0
    6.2000   -1.5000    0.0000 H   0  0  0  0  0  0  0  0  0  0  0  0
    6.2000    1.5000    0.0000 H   0  0  0  0  0  0  0  0  0  0  0  0
    4.7000    1.5000    0.0000 H   0  0  0  0  0  0  0  0  0  0  0  0
    4.7000   -1.5000    0.0000 H   0  0  0  0  0  0  0  0  0  0  0  0
    3.2000   -1.5000    0.0000 H   0  0  0  0  0  0  0  0  0  0  0  0
    3.2000    1.5000    0.0000 H   0  0  0  0  0  0  0  0  0  0  0  0
    1.7000    1.5000    0.0000 H   0  0  0  0  0  0  0  0  0  0  0  0
    1.7000   -1.5000    0.0000 H   0  0  0  0  0  0  0  0  0  0  0  0
    0.2000   -1.5000    0.0000 H   0  0  0  0  0  0  0  0  0  0  0  0
    0.2000    1.5000    0.0000 H   0  0  0  0  0  0  0  0  0  0  0  0
   -1.3000    1.5000    0.0000 H   0  0  0  0  0  0  0  0  0  0  0  0
   -1.3000   -1.5000    0.0000 H   0  0  0  0  0  0  0  0  0  0  0  0
   -2.8000   -1.5000    0.0000 H   0  0  0  0  0  0  0  0  0  0  0  0
   -2.8000    1.5000    0.0000 H   0  0  0  0  0  0  0  0  0  0  0  0
   -4.3000    1.5000    0.0000 H   0  0  0  0  0  0  0  0  0  0  0  0
   -4.3000   -1.5000    0.0000 H   0  0  0  0  0  0  0  0  0  0  0  0
   -5.8000   -1.5000    0.0000 H   0  0  0  0  0  0  0  0  0  0  0  0
   -5.8000    1.5000    0.0000 H   0  0  0  0  0  0  0  0  0  0  0  0
   -7.3000    1.5000    0.0000 H   0  0  0  0  0  0  0  0  0  0  0  0
   -7.3000   -1.5000    0.0000 H   0  0  0  0  0  0  0  0  0  0  0  0
   -8.8000   -1.5000    0.0000 H   0  0  0  0  0  0  0  0  0  0  0  0
   -8.8000    1.5000    0.0000 H   0  0  0  0  0  0  0  0  0  0  0  0
  -10.3000   -2.5981    0.0000 H   0  0  0  0  0  0  0  0  0  0  0  0
  -13.3000   -2.5981    0.0000 H   0  0  0  0  0  0  0  0  0  0  0  0
  -14.8000    0.0000    0.0000 H   0  0  0  0  0  0  0  0  0  0  0  0
  -13.3000    2.5981    0.0000 H   0  0  0  0  0  0  0  0  0  0  0  0
  -10.3000    2.5981    0.0000 H   0  0  0  0  0  0  0  0  0  0  0  0
  1  2  1  0
  1 24  1  0
  1 25  1  0
  1 26  1  0
  2  3  1  0
  2 27  1  0
  2 28  1  0
  3  4  1  0
  3 29  1  0
  3 30  1  0
  4  5  1  0
  4 31  1  0
  4 32  1  0
  5  6  1  0
  5 33  1  0
  5 34  1  0
  6  7  1  0
  6 35  1  0
  6 36  1  0
  7  8  1  0
  7 37  1  0
  7 38  1  0
  8  9  1  0
  8 39  1  0
  8 40  1  0
  9 10  1  0
  9 41  1  0
  9 42  1  0
 10 11  1  0
 10 43  1  0
 10 44  1  0
 11 12  1  0
 11 45  1  0
 11 46  1  0
 12 13  1  0
 12 47  1  0
 12 48  1  0
 13 14  1  0
 13 49  1  0
 13 50  1  0
 14 15  1  0
 14 51  1  0
 14 52  1  0
 15 16  1  0
 15 53  1  0
 15 54  1  0
 16 17  1  0
 16 55  1  0
 16 56  1  0
 17 18  2  0
 17 22  1  0
 18 19  1  0
 18 57  1  0
 19 20  2  0
 19 58  1  0
 20 21  1  0
 20 59  1  0
 21 22  2  0
 21 60  1  0
 22 61  1  0
M  CHG  2  17   1  23  -1
M  END
$$$$

     RDKit          2D

 62 61  0  0  0  0  0  0  0  0999 V2000
   13.9756   -0.1459    0.0000 C   0  0  0  0  0  0  0  0  0  0  0  0
   12.4758   -0.1201    0.0000 C   0  0  0  0  0  0  0  0  0  0  0  0
   10.9760   -0.0943    0.0000 C   0  0  0  0  0  0  0  0  0  0  0  0
    9.4763   -0.0685    0.0000 C   0  0  0  0  0  0  0  0  0  0  0  0
    7.9765   -0.0426    0.0000 C   0  0  0  0  0  0  0  0  0  0  0  0
    6.4767   -0.0168    0.0000 C   0  0  0  0  0  0  0  0  0  0  0  0
    4.9769    0.0090    0.0000 C   0  0  0  0  0  0  0  0  0  0  0  0
    3.4772    0.0348    0.0000 C   0  0  0  0  0  0  0  0  0  0  0  0
    1.9774    0.0607    0.0000 C   0  0  0  0  0  0  0  0  0  0  0  0
    0.4776    0.0865    0.0000 C   0  0  0  0  0  0  0  0  0  0  0  0
   -1.0222    0.1123    0.0000 C   0  0  0  0  0  0  0  0  0  0  0  0
   -2.5220    0.1381    0.0000 C   0  0  0  0  0  0  0  0  0  0  0  0
   -4.0217    0.1640    0.0000 C   0  0  0  0  0  0  0  0  0  0  0  0
   -5.5215    0.1898    0.0000 C   0  0  0  0  0  0  0  0  0  0  0  0
   -7.0213    0.2156    0.0000 C   0  0  0  0  0  0  0  0  0  0  0  0
   -8.5211    0.2414    0.0000 C   0  0  0  0  0  0  0  0  0  0  0  0
  -10.0208    0.2673    0.0000 N   0  0  0  0  0  0  0  0  0  0  0  0
  -10.8815    1.4958    0.0000 C   0  0  0  0  0  0  0  0  0  0  0  0
  -12.3158    1.0569    0.0000 C   0  0  0  0  0  0  0  0  0  0  0  0
  -12.3417   -0.4429    0.0000 N   0  0  0  0  0  0  0  0  0  0  0  0
  -10.9233   -0.9309    0.0000 C   0  0  0  0  0  0  0  0  0  0  0  0
  -13.5702   -1.3035    0.0000 C   0  0  0  0  0  0  0  0  0  0  0  0
    0.0000    3.9142    0.0000 Cl  0  0  0  0  0  0  0  0  0  0  0  0
   14.0014    1.3538    0.0000 H   0  0  0  0  0  0  0  0  0  0  0  0
   13.9498   -1.6457    0.0000 H   0  0  0  0  0  0  0  0  0  0  0  0
   15.4754   -0.1718    0.0000 H   0  0  0  0  0  0  0  0  0  0  0  0
   12.4500   -1.6199    0.0000 H   0  0  0  0  0  0  0  0  0  0  0  0
   12.5017    1.3797    0.0000 H   0  0  0  0  0  0  0  0  0  0  0  0
   11.0019    1.4055    0.0000 H   0  0  0  0  0  0  0  0  0  0  0  0
   10.9502   -1.5941    0.0000 H   0  0  0  0  0  0  0  0  0  0  0  0
    9.4504   -1.5682    0.0000 H   0  0  0  0  0  0  0  0  0  0  0  0
    9.5021    1.4313    0.0000 H   0  0  0  0  0  0  0  0  0  0  0  0
    8.0023    1.4571    0.0000 H   0  0  0  0  0  0  0  0  0  0  0  0
    7.9507   -1.5424    0.0000 H   0  0  0  0  0  0  0  0  0  0  0  0
    6.4509   -1.5166    0.0000 H   0  0  0  0  0  0  0  0  0  0  0  0
    6.5025    1.4830    0.0000 H   0  0  0  0  0  0  0  0  0  0  0  0
    5.0028    1.5088    0.0000 H   0  0  0  0  0  0  0  0  0  0  0  0
    4.9511   -1.4908    0.0000 H   0  0  0  0  0  0  0  0  0  0  0  0
    3.4513   -1.4649    0.0000 H   0  0  0  0  0  0  0  0  0  0  0  0
    3.5030    1.5346    0.0000 H   0  0  0  0  0  0  0  0  0  0  0  0
    2.0032    1.5604    0.0000 H   0  0  0  0  0  0  0  0  0  0  0  0
    1.9516   -1.4391    0.0000 H   0  0  0  0  0  0  0  0  0  0  0  0
    0.4518   -1.4133    0.0000 H   0  0  0  0  0  0  0  0  0  0  0  0
    0.5034    1.5863    0.0000 H   0  0  0  0  0  0  0  0  0  0  0  0
   -0.9963    1.6121    0.0000 H   0  0  0  0  0  0  0  0  0  0  0  0
   -1.0480   -1.3875    0.0000 H   0  0  0  0  0  0  0  0  0  0  0  0
   -2.5478   -1.3616    0.0000 H   0  0  0  0  0  0  0  0  0  0  0  0
   -2.4961    1.6379    0.0000 H   0  0  0  0  0  0  0  0  0  0  0  0
   -3.9959    1.6637    0.0000 H   0  0  0  0  0  0  0  0  0  0  0  0
   -4.0476   -1.3358    0.0000 H   0  0  0  0  0  0  0  0  0  0  0  0
   -5.5473   -1.3100    0.0000 H   0  0  0  0  0  0  0  0  0  0  0  0
   -5.4957    1.6896    0.0000 H   0  0  0  0  0  0  0  0  0  0  0  0
   -6.9955    1.7154    0.0000 H   0  0  0  0  0  0  0  0  0  0  0  0
   -7.0471   -1.2842    0.0000 H   0  0  0  0  0  0  0  0  0  0  0  0
   -8.5469   -1.2583    0.0000 H   0  0  0  0  0  0  0  0  0  0  0  0
   -8.4952    1.7412    0.0000 H   0  0  0  0  0  0  0  0  0  0  0  0
  -10.3935    2.9142    0.0000 H   0  0  0  0  0  0  0  0  0  0  0  0
  -13.5140    1.9593    0.0000 H   0  0  0  0  0  0  0  0  0  0  0  0
  -10.4844   -2.3653    0.0000 H   0  0  0  0  0  0  0  0  0  0  0  0
  -14.4309   -0.0750    0.0000 H   0  0  0  0  0  0  0  0  0  0  0  0
  -12.7095   -2.5321    0.0000 H   0  0  0  0  0  0  0  0  0  0  0  0
  -14.7987   -2.1642    0.0000 H   0  0  0  0  0  0  0  0  0  0  0  0
  1  2  1  0
  1 24  1  0
  1 25  1  0
  1 26  1  0
  2  3  1  0
  2 27  1  0
  2 28  1  0
  3  4  1  0
  3 29  1  0
  3 30  1  0
  4  5  1  0
  4 31  1  0
  4 32  1  0
  5  6  1  0
  5 33  1  0
  5 34  1  0
  6  7  1  0
  6 35  1  0
  6 36  1  0
  7  8  1  0
  7 37  1  0
  7 38  1  0
  8  9  1  0
  8 39  1  0
  8 40  1  0
  9 10  1  0
  9 41  1  0
  9 42  1  0
 10 11  1  0
 10 43  1  0
 10 44  1  0
 11 12  1  0
 11 45  1  0
 11 46  1  0
 12 13  1  0
 12 47  1  0
 12 48  1  0
 13 14  1  0
 13 49  1  0
 13 50  1  0
 14 15  1  0
 14 51  1  0
 14 52  1  0
 15 16  1  0
 15 53  1  0
 15 54  1  0
 16 17  1  0
 16 55  1  0
 16 56  1  0
 17 18  1  0
 17 21  1  0
 18 19  2  0
 18 57  1  0
 19 20  1  0
 19 58  1  0
 20 21  2  0
 20 22  1  0
 21 59  1  0
 22 60  1  0
 22 61  1  0
 22 62  1  0
M  CHG  2  20   1  23  -1
M  END
$$$$

     RDKit          2D

 44 45  0  0  0  0  0  0  0  0999 V2000
   -4.5610    1.2039    0.0000 C   0  0  0  0  0  0  0  0  0  0  0  0
   -5.9886    0.7436    0.0000 C   0  0  0  0  0  0  0  0  0  0  0  0
   -6.3038   -0.7230    0.0000 C   0  0  0  0  0  0  0  0  0  0  0  0
   -5.1913   -1.7291    0.0000 C   0  0  0  0  0  0  0  0  0  0  0  0
   -3.7637   -1.2688    0.0000 C   0  0  0  0  0  0  0  0  0  0  0  0
   -3.4485    0.1977    0.0000 C   0  0  0  0  0  0  0  0  0  0  0  0
   -2.0209    0.6581    0.0000 C   0  0  0  0  0  0  0  0  0  0  0  0
   -0.5933    1.1184    0.0000 O   0  0  0  0  0  0  0  0  0  0  0  0
    0.5192    0.1123    0.0000 C   0  0  0  0  0  0  0  0  0  0  0  0
    1.6316   -0.8939    0.0000 C   0  0  0  0  0  0  0  0  0  0  0  0
    2.7441   -1.9001    0.0000 N   0  0  0  0  0  0  0  0  0  0  0  0
    2.5840   -3.3915    0.0000 C   0  0  0  0  0  0  0  0  0  0  0  0
    3.9530   -4.0047    0.0000 C   0  0  0  0  0  0  0  0  0  0  0  0
    4.9591   -2.8922    0.0000 N   0  0  0  0  0  0  0  0  0  0  0  0
    4.2120   -1.5915    0.0000 C   0  0  0  0  0  0  0  0  0  0  0  0
    1.5253    1.2247    0.0000 C   0  0  0  0  0  0  0  0  0  0  0  0
    2.9919    0.9096    0.0000 C   0  0  0  0  0  0  0  0  0  0  0  0
    3.9980    2.0221    0.0000 C   0  0  0  0  0  0  0  0  0  0  0  0
    3.5377    3.4497    0.0000 C   0  0  0  0  0  0  0  0  0  0  0  0
    2.0712    3.7648    0.0000 C   0  0  0  0  0  0  0  0  0  0  0  0
    1.0650    2.6524    0.0000 C   0  0  0  0  0  0  0  0  0  0  0  0
    4.5439    4.5622    0.0000 Cl  0  0  0  0  0  0  0  0  0  0  0  0
    3.2637    0.0666    0.0000 Cl  0  0  0  0  0  0  0  0  0  0  0  0
   -7.7314   -1.1833    0.0000 Cl  0  0  0  0  0  0  0  0  0  0  0  0
    0.5196    7.6924    0.0000 N   0  0  0  0  0  0  0  0  0  0  0  0
    0.5196    6.1924    0.0000 O   0  0  0  0  0  0  0  0  0  0  0  0
   -0.7794    8.4424    0.0000 O   0  0  0  0  0  0  0  0  0  0  0  0
    1.8187    8.4424    0.0000 O   0  0  0  0  0  0  0  0  0  0  0  0
   -4.2459    2.6704    0.0000 H   0  0  0  0  0  0  0  0  0  0  0  0
   -7.1011    1.7497    0.0000 H   0  0  0  0  0  0  0  0  0  0  0  0
   -5.5064   -3.1957    0.0000 H   0  0  0  0  0  0  0  0  0  0  0  0
   -2.6512   -2.2750    0.0000 H   0  0  0  0  0  0  0  0  0  0  0  0
   -2.4813    2.0857    0.0000 H   0  0  0  0  0  0  0  0  0  0  0  0
   -1.5606   -0.7695    0.0000 H   0  0  0  0  0  0  0  0  0  0  0  0
   -0.4870   -1.0002    0.0000 H   0  0  0  0  0  0  0  0  0  0  0  0
    2.3671   -0.4003    0.0000 H   0  0  0  0  0  0  0  0  0  0  0  0
    0.6255   -2.0064    0.0000 H   0  0  0  0  0  0  0  0  0  0  0  0
    1.2833   -4.1386    0.0000 H   0  0  0  0  0  0  0  0  0  0  0  0
    4.2616   -5.4726    0.0000 H   0  0  0  0  0  0  0  0  0  0  0  0
    4.8252   -0.2225    0.0000 H   0  0  0  0  0  0  0  0  0  0  0  0
    5.4646    1.7070    0.0000 H   0  0  0  0  0  0  0  0  0  0  0  0
    1.6108    5.1924    0.0000 H   0  0  0  0  0  0  0  0  0  0  0  0
   -0.4015    2.9675    0.0000 H   0  0  0  0  0  0  0  0  0  0  0  0
   -2.0785    7.6924    0.0000 H   0  0  0  0  0  0  0  0  0  0  0  0
  1  2  2  0
  1  6  1  0
  1 29  1  0
  2  3  1  0
  2 30  1  0
  3  4  2  0
  3 24  1  0
  4  5  1  0
  4 31  1  0
  5  6  2  0
  5 32  1  0
  6  7  1  0
  7  8  1  0
  7 33  1  0
  7 34  1  0
  8  9  1  0
  9 10  1  0
  9 16  1  0
  9 35  1  1
 10 11  1  0
 10 36  1  0
 10 37  1  0
 11 12  1  0
 11 15  1  0
 12 13  2  0
 12 38  1  0
 13 14  1  0
 13 39  1  0
 14 15  2  0
 15 40  1  0
 16 17  2  0
 16 21  1  0
 17 18  1  0
 17 23  1  0
 18 19  2  0
 18 41  1  0
 19 20  1  0
 19 22  1  0
 20 21  2  0
 20 42  1  0
 21 43  1  0
 25 26  2  0
 25 27  1  0
 25 28  1  0
 27 44  1  0
M  CHG  2  25   1  28  -1
M  END
$$$$

     RDKit          2D

 61 60  0  0  0  0  0  0  0  0999 V2000
   13.7000    0.0000    0.0000 C   0  0  0  0  0  0  0  0  0  0  0  0
   12.2000    0.0000    0.0000 C   0  0  0  0  0  0  0  0  0  0  0  0
   10.7000    0.0000    0.0000 C   0  0  0  0  0  0  0  0  0  0  0  0
    9.2000    0.0000    0.0000 C   0  0  0  0  0  0  0  0  0  0  0  0
    7.7000    0.0000    0.0000 C   0  0  0  0  0  0  0  0  0  0  0  0
    6.2000    0.0000    0.0000 C   0  0  0  0  0  0  0  0  0  0  0  0
    4.7000    0.0000    0.0000 C   0  0  0  0  0  0  0  0  0  0  0  0
    3.2000    0.0000    0.0000 C   0  0  0  0  0  0  0  0  0  0  0  0
    1.7000    0.0000    0.0000 C   0  0  0  0  0  0  0  0  0  0  0  0
    0.2000    0.0000    0.0000 C   0  0  0  0  0  0  0  0  0  0  0  0
   -1.3000    0.0000    0.0000 C   0  0  0  0  0  0  0  0  0  0  0  0
   -2.8000    0.0000    0.0000 C   0  0  0  0  0  0  0  0  0  0  0  0
   -4.3000    0.0000    0.0000 C   0  0  0  0  0  0  0  0  0  0  0  0
   -5.8000    0.0000    0.0000 C   0  0  0  0  0  0  0  0  0  0  0  0
   -7.3000    0.0000    0.0000 C   0  0  0  0  0  0  0  0  0  0  0  0
   -8.8000    0.0000    0.0000 C   0  0  0  0  0  0  0  0  0  0  0  0
  -10.3000    0.0000    0.0000 N   0  0  0  0  0  0  0  0  0  0  0  0
  -11.0500   -1.2990    0.0000 C   0  0  0  0  0  0  0  0  0  0  0  0
  -12.5500   -1.2990    0.0000 C   0  0  0  0  0  0  0  0  0  0  0  0
  -13.3000    0.0000    0.0000 C   0  0  0  0  0  0  0  0  0  0  0  0
  -12.5500    1.2990    0.0000 C   0  0  0  0  0  0  0  0  0  0  0  0
  -11.0500    1.2990    0.0000 C   0  0  0  0  0  0  0  0  0  0  0  0
    0.0000    3.5981    0.0000 Br  0  0  0  0  0  0  0  0  0  0  0  0
   13.7000    1.5000    0.0000 H   0  0  0  0  0  0  0  0  0  0  0  0
   13.7000   -1.5000    0.0000 H   0  0  0  0  0  0  0  0  0  0  0  0
   15.2000    0.0000    0.0000 H   0  0  0  0  0  0  0  0  0  0  0  0
   12.2000   -1.5000    0.0000 H   0  0  0  0  0  0  0  0  0  0  0  0
   12.2000    1.5000    0.0000 H   0  0  0  0  0  0  0  0  0  0  0  0
   10.7000    1.5000    0.0000 H   0  0  0  0  0  0  0  0  0  0  0  0
   10.7000   -1.5000    0.0000 H   0  0  0  0  0  0  0  0  0  0  0  0
    9.2000   -1.5000    0.0000 H   0  0  0  0  0  0  0  0  0  0  0  0
    9.2000    1.5000    0.0000 H   0  0  0  0  0  0  0  0  0  0  0  0
    7.7000    1.5000    0.0000 H   0  0  0  0  0  0  0  0  0  0  0  0
    7.7000   -1.5000    0.0000 H   0  0  0  0  0  0  0  0  0  0  0  0
    6.2000   -1.5000    0.0000 H   0  0  0  0  0  0  0  0  0  0  0  0
    6.2000    1.5000    0.0000 H   0  0  0  0  0  0  0  0  0  0  0  0
    4.7000    1.5000    0.0000 H   0  0  0  0  0  0  0  0  0  0  0  0
    4.7000   -1.5000    0.0000 H   0  0  0  0  0  0  0  0  0  0  0  0
    3.2000   -1.5000    0.0000 H   0  0  0  0  0  0  0  0  0  0  0  0
    3.2000    1.5000    0.0000 H   0  0  0  0  0  0  0  0  0  0  0  0
    1.7000    1.5000    0.0000 H   0  0  0  0  0  0  0  0  0  0  0  0
    1.7000   -1.5000    0.0000 H   0  0  0  0  0  0  0  0  0  0  0  0
    0.2000   -1.5000    0.0000 H   0  0  0  0  0  0  0  0  0  0  0  0
    0.2000    1.5000    0.0000 H   0  0  0  0  0  0  0  0  0  0  0  0
   -1.3000    1.5000    0.0000 H   0  0  0  0  0  0  0  0  0  0  0  0
   -1.3000   -1.5000    0.0000 H   0  0  0  0  0  0  0  0  0  0  0  0
   -2.8000   -1.5000    0.0000 H   0  0  0  0  0  0  0  0  0  0  0  0
   -2.8000    1.5000    0.0000 H   0  0  0  0  0  0  0  0  0  0  0  0
   -4.3000    1.5000    0.0000 H   0  0  0  0  0  0  0  0  0  0  0  0
   -4.3000   -1.5000    0.0000 H   0  0  0  0  0  0  0  0  0  0  0  0
   -5.8000   -1.5000    0.0000 H   0  0  0  0  0  0  0  0  0  0  0  0
   -5.8000    1.5000    0.0000 H   0  0  0  0  0  0  0  0  0  0  0  0
   -7.3000    1.5000    0.0000 H   0  0  0  0  0  0  0  0  0  0  0  0
   -7.3000   -1.5000    0.0000 H   0  0  0  0  0  0  0  0  0  0  0  0
   -8.8000   -1.5000    0.0000 H   0  0  0  0  0  0  0  0  0  0  0  0
   -8.8000    1.5000    0.0000 H   0  0  0  0  0  0  0  0  0  0  0  0
  -10.3000   -2.5981    0.0000 H   0  0  0  0  0  0  0  0  0  0  0  0
  -13.3000   -2.5981    0.0000 H   0  0  0  0  0  0  0  0  0  0  0  0
  -14.8000    0.0000    0.0000 H   0  0  0  0  0  0  0  0  0  0  0  0
  -13.3000    2.5981    0.0000 H   0  0  0  0  0  0  0  0  0  0  0  0
  -10.3000    2.5981    0.0000 H   0  0  0  0  0  0  0  0  0  0  0  0
  1  2  1  0
  1 24  1  0
  1 25  1  0
  1 26  1  0
  2  3  1  0
  2 27  1  0
  2 28  1  0
  3  4  1  0
  3 29  1  0
  3 30  1  0
  4  5  1  0
  4 31  1  0
  4 32  1  0
  5  6  1  0
  5 33  1  0
  5 34  1  0
  6  7  1  0
  6 35  1  0
  6 36  1  0
  7  8  1  0
  7 37  1  0
  7 38  1  0
  8  9  1  0
  8 39  1  0
  8 40  1  0
  9 10  1  0
  9 41  1  0
  9 42  1  0
 10 11  1  0
 10 43  1  0
 10 44  1  0
 11 12  1  0
 11 45  1  0
 11 46  1  0
 12 13  1  0
 12 47  1  0
 12 48  1  0
 13 14  1  0
 13 49  1  0
 13 50  1  0
 14 15  1  0
 14 51  1  0
 14 52  1  0
 15 16  1  0
 15 53  1  0
 15 54  1  0
 16 17  1  0
 16 55  1  0
 16 56  1  0
 17 18  2  0
 17 22  1  0
 18 19  1  0
 18 57  1  0
 19 20  2  0
 19 58  1  0
 20 21  1  0
 20 59  1  0
 21 22  2  0
 21 60  1  0
 22 61  1  0
M  CHG  2  17   1  23  -1
M  END
$$$$

     RDKit          2D

  7  6  0  0  0  0  0  0  0  0999 V2000
    0.6429    0.0000    0.0000 C   0  0  0  0  0  0  0  0  0  0  0  0
   -0.8571   -0.0000    0.0000 C   0  0  0  0  0  0  0  0  0  0  0  0
   -1.6071    1.2990    0.0000 O   0  0  0  0  0  0  0  0  0  0  0  0
    0.6429    1.5000    0.0000 H   0  0  0  0  0  0  0  0  0  0  0  0
    0.6429   -1.5000    0.0000 H   0  0  0  0  0  0  0  0  0  0  0  0
    2.1429    0.0000    0.0000 H   0  0  0  0  0  0  0  0  0  0  0  0
   -1.6071   -1.2990    0.0000 H   0  0  0  0  0  0  0  0  0  0  0  0
  1  2  1  0
  1  4  1  0
  1  5  1  0
  1  6  1  0
  2  3  2  0
  2  7  1  0
M  END
$$$$

     RDKit          2D

 70 69  0  0  0  0  0  0  0  0999 V2000
   12.4729   -0.1578    0.0000 C   0  0  0  0  0  0  0  0  0  0  0  0
   10.9732   -0.1262    0.0000 C   0  0  0  0  0  0  0  0  0  0  0  0
    9.4735   -0.0946    0.0000 C   0  0  0  0  0  0  0  0  0  0  0  0
    7.9739   -0.0630    0.0000 C   0  0  0  0  0  0  0  0  0  0  0  0
    6.4742   -0.0314    0.0000 C   0  0  0  0  0  0  0  0  0  0  0  0
    4.9745    0.0002    0.0000 C   0  0  0  0  0  0  0  0  0  0  0  0
    3.4749    0.0318    0.0000 C   0  0  0  0  0  0  0  0  0  0  0  0
    1.9752    0.0634    0.0000 C   0  0  0  0  0  0  0  0  0  0  0  0
    0.4755    0.0950    0.0000 C   0  0  0  0  0  0  0  0  0  0  0  0
   -1.0241    0.1266    0.0000 C   0  0  0  0  0  0  0  0  0  0  0  0
   -2.5238    0.1582    0.0000 C   0  0  0  0  0  0  0  0  0  0  0  0
   -4.0235    0.1898    0.0000 C   0  0  0  0  0  0  0  0  0  0  0  0
   -5.5231    0.2214    0.0000 C   0  0  0  0  0  0  0  0  0  0  0  0
   -7.0228    0.2530    0.0000 C   0  0  0  0  0  0  0  0  0  0  0  0
   -8.5225    0.2846    0.0000 N   0  0  0  0  0  0  0  0  0  0  0  0
   -9.3784    1.5165    0.0000 C   0  0  0  0  0  0  0  0  0  0  0  0
  -10.8144    1.0831    0.0000 C   0  0  0  0  0  0  0  0  0  0  0  0
  -10.8460   -0.4166    0.0000 N   0  0  0  0  0  0  0  0  0  0  0  0
   -9.4295   -0.9100    0.0000 C   0  0  0  0  0  0  0  0  0  0  0  0
  -12.0778   -1.2725    0.0000 C   0  0  0  0  0  0  0  0  0  0  0  0
    2.5981    5.2320    0.0000 C   0  0  0  0  0  0  0  0  0  0  0  0
    1.8481    3.9330    0.0000 F   0  0  0  0  0  0  0  0  0  0  0  0
    3.3481    6.5310    0.0000 F   0  0  0  0  0  0  0  0  0  0  0  0
    3.8971    4.4820    0.0000 F   0  0  0  0  0  0  0  0  0  0  0  0
    1.2990    5.9820    0.0000 S   0  0  0  0  0  0  0  0  0  0  0  0
    2.0490    7.2810    0.0000 O   0  0  0  0  0  0  0  0  0  0  0  0
    0.5490    4.6830    0.0000 O   0  0  0  0  0  0  0  0  0  0  0  0
    0.0000    6.7320    0.0000 N   0  0  0  0  0  0  0  0  0  0  0  0
   -1.2990    5.9820    0.0000 S   0  0  0  0  0  0  0  0  0  0  0  0
   -0.5490    4.6830    0.0000 O   0  0  0  0  0  0  0  0  0  0  0  0
   -2.0490    7.2810    0.0000 O   0  0  0  0  0  0  0  0  0  0  0  0
   -2.5981    5.2320    0.0000 C   0  0  0  0  0  0  0  0  0  0  0  0
   -1.8481    3.9330    0.0000 F   0  0  0  0  0  0  0  0  0  0  0  0
   -3.3481    6.5310    0.0000 F   0  0  0  0  0  0  0  0  0  0  0  0
   -3.8971    4.4820    0.0000 F   0  0  0  0  0  0  0  0  0  0  0  0
   12.5045    1.3419    0.0000 H   0  0  0  0  0  0  0  0  0  0  0  0
   12.4413   -1.6574    0.0000 H   0  0  0  0  0  0  0  0  0  0  0  0
   13.9725   -0.1894    0.0000 H   0  0  0  0  0  0  0  0  0  0  0  0
   10.9416   -1.6258    0.0000 H   0  0  0  0  0  0  0  0  0  0  0  0
   11.0048    1.3735    0.0000 H   0  0  0  0  0  0  0  0  0  0  0  0
    9.5051    1.4051    0.0000 H   0  0  0  0  0  0  0  0  0  0  0  0
    9.4419   -1.5942    0.0000 H   0  0  0  0  0  0  0  0  0  0  0  0
    7.9423   -1.5626    0.0000 H   0  0  0  0  0  0  0  0  0  0  0  0
    8.0055    1.4367    0.0000 H   0  0  0  0  0  0  0  0  0  0  0  0
    6.5058    1.4683    0.0000 H   0  0  0  0  0  0  0  0  0  0  0  0
    6.4426   -1.5310    0.0000 H   0  0  0  0  0  0  0  0  0  0  0  0
    4.9429   -1.4994    0.0000 H   0  0  0  0  0  0  0  0  0  0  0  0
    5.0061    1.4999    0.0000 H   0  0  0  0  0  0  0  0  0  0  0  0
    3.5065    1.5315    0.0000 H   0  0  0  0  0  0  0  0  0  0  0  0
    3.4433   -1.4678    0.0000 H   0  0  0  0  0  0  0  0  0  0  0  0
    1.9436   -1.4362    0.0000 H   0  0  0  0  0  0  0  0  0  0  0  0
    2.0068    1.5631    0.0000 H   0  0  0  0  0  0  0  0  0  0  0  0
    0.5071    1.5947    0.0000 H   0  0  0  0  0  0  0  0  0  0  0  0
    0.4439   -1.4046    0.0000 H   0  0  0  0  0  0  0  0  0  0  0  0
   -1.0557   -1.3730    0.0000 H   0  0  0  0  0  0  0  0  0  0  0  0
   -0.9925    1.6263    0.0000 H   0  0  0  0  0  0  0  0  0  0  0  0
   -2.4922    1.6579    0.0000 H   0  0  0  0  0  0  0  0  0  0  0  0
   -2.5554   -1.3414    0.0000 H   0  0  0  0  0  0  0  0  0  0  0  0
   -4.0551   -1.3098    0.0000 H   0  0  0  0  0  0  0  0  0  0  0  0
   -3.9919    1.6895    0.0000 H   0  0  0  0  0  0  0  0  0  0  0  0
   -5.4915    1.7211    0.0000 H   0  0  0  0  0  0  0  0  0  0  0  0
   -5.5547   -1.2782    0.0000 H   0  0  0  0  0  0  0  0  0  0  0  0
   -7.0544   -1.2466    0.0000 H   0  0  0  0  0  0  0  0  0  0  0  0
   -6.9912    1.7527    0.0000 H   0  0  0  0  0  0  0  0  0  0  0  0
   -8.8849    2.9330    0.0000 H   0  0  0  0  0  0  0  0  0  0  0  0
  -12.0091    1.9901    0.0000 H   0  0  0  0  0  0  0  0  0  0  0  0
   -8.9961   -2.3461    0.0000 H   0  0  0  0  0  0  0  0  0  0  0  0
  -12.9338   -0.0407    0.0000 H   0  0  0  0  0  0  0  0  0  0  0  0
  -11.2219   -2.5043    0.0000 H   0  0  0  0  0  0  0  0  0  0  0  0
  -13.3097   -2.1284    0.0000 H   0  0  0  0  0  0  0  0  0  0  0  0
  1  2  1  0
  1 36  1  0
  1 37  1  0
  1 38  1  0
  2  3  1  0
  2 39  1  0
  2 40  1  0
  3  4  1  0
  3 41  1  0
  3 42  1  0
  4  5  1  0
  4 43  1  0
  4 44  1  0
  5  6  1  0
  5 45  1  0
  5 46  1  0
  6  7  1  0
  6 47  1  0
  6 48  1  0
  7  8  1  0
  7 49  1  0
  7 50  1  0
  8  9  1  0
  8 51  1  0
  8 52  1  0
  9 10  1  0
  9 53  1  0
  9 54  1  0
 10 11  1  0
 10 55  1  0
 10 56  1  0
 11 12  1  0
 11 57  1  0
 11 58  1  0
 12 13  1  0
 12 59  1  0
 12 60  1  0
 13 14  1  0
 13 61  1  0
 13 62  1  0
 14 15  1  0
 14 63  1  0
 14 64  1  0
 15 16  1  0
 15 19  1  0
 16 17  2  0
 16 65  1  0
 17 18  1  0
 17 66  1  0
 18 19  2  0
 18 20  1  0
 19 67  1  0
 20 68  1  0
 20 69  1  0
 20 70  1  0
 21 22  1  0
 21 23  1  0
 21 24  1  0
 21 25  1  0
 25 26  2  0
 25 27  2  0
 25 28  1  0
 28 29  1  0
 29 30  2  0
 29 31  2  0
 29 32  1  0
 32 33  1  0
 32 34  1  0
 32 35  1  0
M  CHG  2  18   1  28  -1
M  END
$$$$

     RDKit          2D

 54 53  0  0  0  0  0  0  0  0999 V2000
    0.0000    5.4536    0.0000 B   0  0  0  0  0  0  0  0  0  0  0  0
    1.5000    5.4536    0.0000 F   0  0  0  0  0  0  0  0  0  0  0  0
   -1.5000    5.4536    0.0000 F   0  0  0  0  0  0  0  0  0  0  0  0
    0.0000    6.9536    0.0000 F   0  0  0  0  0  0  0  0  0  0  0  0
   -0.0000    3.9536    0.0000 F   0  0  0  0  0  0  0  0  0  0  0  0
   10.9695   -0.1717    0.0000 C   0  0  0  0  0  0  0  0  0  0  0  0
    9.4700   -0.1321    0.0000 C   0  0  0  0  0  0  0  0  0  0  0  0
    7.9705   -0.0925    0.0000 C   0  0  0  0  0  0  0  0  0  0  0  0
    6.4710   -0.0529    0.0000 C   0  0  0  0  0  0  0  0  0  0  0  0
    4.9716   -0.0133    0.0000 C   0  0  0  0  0  0  0  0  0  0  0  0
    3.4721    0.0262    0.0000 C   0  0  0  0  0  0  0  0  0  0  0  0
    1.9726    0.0658    0.0000 C   0  0  0  0  0  0  0  0  0  0  0  0
    0.4731    0.1054    0.0000 C   0  0  0  0  0  0  0  0  0  0  0  0
   -1.0264    0.1450    0.0000 C   0  0  0  0  0  0  0  0  0  0  0  0
   -2.5258    0.1846    0.0000 C   0  0  0  0  0  0  0  0  0  0  0  0
   -4.0253    0.2242    0.0000 C   0  0  0  0  0  0  0  0  0  0  0  0
   -5.5248    0.2638    0.0000 C   0  0  0  0  0  0  0  0  0  0  0  0
   -7.0243    0.3034    0.0000 N   0  0  0  0  0  0  0  0  0  0  0  0
   -7.8736    1.5398    0.0000 C   0  0  0  0  0  0  0  0  0  0  0  0
   -9.3119    1.1141    0.0000 C   0  0  0  0  0  0  0  0  0  0  0  0
   -9.3515   -0.3854    0.0000 N   0  0  0  0  0  0  0  0  0  0  0  0
   -7.9377   -0.8864    0.0000 C   0  0  0  0  0  0  0  0  0  0  0  0
  -10.5879   -1.2347    0.0000 C   0  0  0  0  0  0  0  0  0  0  0  0
   11.0091    1.3278    0.0000 H   0  0  0  0  0  0  0  0  0  0  0  0
   10.9299   -1.6712    0.0000 H   0  0  0  0  0  0  0  0  0  0  0  0
   12.4689   -0.2113    0.0000 H   0  0  0  0  0  0  0  0  0  0  0  0
    9.4304   -1.6316    0.0000 H   0  0  0  0  0  0  0  0  0  0  0  0
    9.5096    1.3673    0.0000 H   0  0  0  0  0  0  0  0  0  0  0  0
    8.0101    1.4069    0.0000 H   0  0  0  0  0  0  0  0  0  0  0  0
    7.9309   -1.5920    0.0000 H   0  0  0  0  0  0  0  0  0  0  0  0
    6.4314   -1.5524    0.0000 H   0  0  0  0  0  0  0  0  0  0  0  0
    6.5106    1.4465    0.0000 H   0  0  0  0  0  0  0  0  0  0  0  0
    5.0112    1.4861    0.0000 H   0  0  0  0  0  0  0  0  0  0  0  0
    4.9320   -1.5128    0.0000 H   0  0  0  0  0  0  0  0  0  0  0  0
    3.4325   -1.4732    0.0000 H   0  0  0  0  0  0  0  0  0  0  0  0
    3.5117    1.5257    0.0000 H   0  0  0  0  0  0  0  0  0  0  0  0
    2.0122    1.5653    0.0000 H   0  0  0  0  0  0  0  0  0  0  0  0
    1.9330   -1.4336    0.0000 H   0  0  0  0  0  0  0  0  0  0  0  0
    0.4335   -1.3940    0.0000 H   0  0  0  0  0  0  0  0  0  0  0  0
    0.5127    1.6049    0.0000 H   0  0  0  0  0  0  0  0  0  0  0  0
   -0.9868    1.6445    0.0000 H   0  0  0  0  0  0  0  0  0  0  0  0
   -1.0659   -1.3544    0.0000 H   0  0  0  0  0  0  0  0  0  0  0  0
   -2.5654   -1.3148    0.0000 H   0  0  0  0  0  0  0  0  0  0  0  0
   -2.4862    1.6841    0.0000 H   0  0  0  0  0  0  0  0  0  0  0  0
   -3.9857    1.7237    0.0000 H   0  0  0  0  0  0  0  0  0  0  0  0
   -4.0649   -1.2753    0.0000 H   0  0  0  0  0  0  0  0  0  0  0  0
   -5.5644   -1.2357    0.0000 H   0  0  0  0  0  0  0  0  0  0  0  0
   -5.4852    1.7633    0.0000 H   0  0  0  0  0  0  0  0  0  0  0  0
   -7.3726    2.9536    0.0000 H   0  0  0  0  0  0  0  0  0  0  0  0
  -10.5018    2.0275    0.0000 H   0  0  0  0  0  0  0  0  0  0  0  0
   -7.5120   -2.3247    0.0000 H   0  0  0  0  0  0  0  0  0  0  0  0
  -11.4372    0.0016    0.0000 H   0  0  0  0  0  0  0  0  0  0  0  0
   -9.7386   -2.4711    0.0000 H   0  0  0  0  0  0  0  0  0  0  0  0
  -11.8243   -2.0841    0.0000 H   0  0  0  0  0  0  0  0  0  0  0  0
  1  2  1  0
  1  3  1  0
  1  4  1  0
  1  5  1  0
  6  7  1  0
  6 24  1  0
  6 25  1  0
  6 26  1  0
  7  8  1  0
  7 27  1  0
  7 28  1  0
  8  9  1  0
  8 29  1  0
  8 30  1  0
  9 10  1  0
  9 31  1  0
  9 32  1  0
 10 11  1  0
 10 33  1  0
 10 34  1  0
 11 12  1  0
 11 35  1  0
 11 36  1  0
 12 13  1  0
 12 37  1  0
 12 38  1  0
 13 14  1  0
 13 39  1  0
 13 40  1  0
 14 15  1  0
 14 41  1  0
 14 42  1  0
 15 16  1  0
 15 43  1  0
 15 44  1  0
 16 17  1  0
 16 45  1  0
 16 46  1  0
 17 18  1  0
 17 47  1  0
 17 48  1  0
 18 19  1  0
 18 22  1  0
 19 20  2  0
 19 49  1  0
 20 21  1  0
 20 50  1  0
 21 22  2  0
 21 23  1  0
 22 51  1  0
 23 52  1  0
 23 53  1  0
 23 54  1  0
M  CHG  2   1  -1  21   1
M  END
$$$$

     RDKit          2D

 57 56  0  0  0  0  0  0  0  0999 V2000
   10.9695   -0.1717    0.0000 C   0  0  0  0  0  0  0  0  0  0  0  0
    9.4700   -0.1321    0.0000 C   0  0  0  0  0  0  0  0  0  0  0  0
    7.9705   -0.0925    0.0000 C   0  0  0  0  0  0  0  0  0  0  0  0
    6.4710   -0.0529    0.0000 C   0  0  0  0  0  0  0  0  0  0  0  0
    4.9716   -0.0133    0.0000 C   0  0  0  0  0  0  0  0  0  0  0  0
    3.4721    0.0262    0.0000 C   0  0  0  0  0  0  0  0  0  0  0  0
    1.9726    0.0658    0.0000 C   0  0  0  0  0  0  0  0  0  0  0  0
    0.4731    0.1054    0.0000 C   0  0  0  0  0  0  0  0  0  0  0  0
   -1.0264    0.1450    0.0000 C   0  0  0  0  0  0  0  0  0  0  0  0
   -2.5258    0.1846    0.0000 C   0  0  0  0  0  0  0  0  0  0  0  0
   -4.0253    0.2242    0.0000 C   0  0  0  0  0  0  0  0  0  0  0  0
   -5.5248    0.2638    0.0000 C   0  0  0  0  0  0  0  0  0  0  0  0
   -7.0243    0.3034    0.0000 N   0  0  0  0  0  0  0  0  0  0  0  0
   -7.8736    1.5398    0.0000 C   0  0  0  0  0  0  0  0  0  0  0  0
   -9.3119    1.1141    0.0000 C   0  0  0  0  0  0  0  0  0  0  0  0
   -9.3515   -0.3854    0.0000 N   0  0  0  0  0  0  0  0  0  0  0  0
   -7.9377   -0.8864    0.0000 C   0  0  0  0  0  0  0  0  0  0  0  0
  -10.5879   -1.2347    0.0000 C   0  0  0  0  0  0  0  0  0  0  0  0
    0.7500    5.4536    0.0000 C   0  0  0  0  0  0  0  0  0  0  0  0
    0.7500    3.9536    0.0000 F   0  0  0  0  0  0  0  0  0  0  0  0
    0.7500    6.9536    0.0000 F   0  0  0  0  0  0  0  0  0  0  0  0
    2.2500    5.4536    0.0000 F   0  0  0  0  0  0  0  0  0  0  0  0
   -0.7500    5.4536    0.0000 S   0  0  0  0  0  0  0  0  0  0  0  0
   -0.7500    6.9536    0.0000 O   0  0  0  0  0  0  0  0  0  0  0  0
   -0.7500    3.9536    0.0000 O   0  0  0  0  0  0  0  0  0  0  0  0
   -2.2500    5.4536    0.0000 O   0  0  0  0  0  0  0  0  0  0  0  0
   11.0091    1.3278    0.0000 H   0  0  0  0  0  0  0  0  0  0  0  0
   10.9299   -1.6712    0.0000 H   0  0  0  0  0  0  0  0  0  0  0  0
   12.4689   -0.2113    0.0000 H   0  0  0  0  0  0  0  0  0  0  0  0
    9.4304   -1.6316    0.0000 H   0  0  0  0  0  0  0  0  0  0  0  0
    9.5096    1.3673    0.0000 H   0  0  0  0  0  0  0  0  0  0  0  0
    8.0101    1.4069    0.0000 H   0  0  0  0  0  0  0  0  0  0  0  0
    7.9309   -1.5920    0.0000 H   0  0  0  0  0  0  0  0  0  0  0  0
    6.4314   -1.5524    0.0000 H   0  0  0  0  0  0  0  0  0  0  0  0
    6.5106    1.4465    0.0000 H   0  0  0  0  0  0  0  0  0  0  0  0
    5.0112    1.4861    0.0000 H   0  0  0  0  0  0  0  0  0  0  0  0
    4.9320   -1.5128    0.0000 H   0  0  0  0  0  0  0  0  0  0  0  0
    3.4325   -1.4732    0.0000 H   0  0  0  0  0  0  0  0  0  0  0  0
    3.5117    1.5257    0.0000 H   0  0  0  0  0  0  0  0  0  0  0  0
    2.0122    1.5653    0.0000 H   0  0  0  0  0  0  0  0  0  0  0  0
    1.9330   -1.4336    0.0000 H   0  0  0  0  0  0  0  0  0  0  0  0
    0.4335   -1.3940    0.0000 H   0  0  0  0  0  0  0  0  0  0  0  0
    0.5127    1.6049    0.0000 H   0  0  0  0  0  0  0  0  0  0  0  0
   -0.9868    1.6445    0.0000 H   0  0  0  0  0  0  0  0  0  0  0  0
   -1.0659   -1.3544    0.0000 H   0  0  0  0  0  0  0  0  0  0  0  0
   -2.5654   -1.3148    0.0000 H   0  0  0  0  0  0  0  0  0  0  0  0
   -2.4862    1.6841    0.0000 H   0  0  0  0  0  0  0  0  0  0  0  0
   -3.9857    1.7237    0.0000 H   0  0  0  0  0  0  0  0  0  0  0  0
   -4.0649   -1.2753    0.0000 H   0  0  0  0  0  0  0  0  0  0  0  0
   -5.5644   -1.2357    0.0000 H   0  0  0  0  0  0  0  0  0  0  0  0
   -5.4852    1.7633    0.0000 H   0  0  0  0  0  0  0  0  0  0  0  0
   -7.3726    2.9536    0.0000 H   0  0  0  0  0  0  0  0  0  0  0  0
  -10.5018    2.0275    0.0000 H   0  0  0  0  0  0  0  0  0  0  0  0
   -7.5120   -2.3247    0.0000 H   0  0  0  0  0  0  0  0  0  0  0  0
  -11.4372    0.0016    0.0000 H   0  0  0  0  0  0  0  0  0  0  0  0
   -9.7386   -2.4711    0.0000 H   0  0  0  0  0  0  0  0  0  0  0  0
  -11.8243   -2.0841    0.0000 H   0  0  0  0  0  0  0  0  0  0  0  0
  1  2  1  0
  1 27  1  0
  1 28  1  0
  1 29  1  0
  2  3  1  0
  2 30  1  0
  2 31  1  0
  3  4  1  0
  3 32  1  0
  3 33  1  0
  4  5  1  0
  4 34  1  0
  4 35  1  0
  5  6  1  0
  5 36  1  0
  5 37  1  0
  6  7  1  0
  6 38  1  0
  6 39  1  0
  7  8  1  0
  7 40  1  0
  7 41  1  0
  8  9  1  0
  8 42  1  0
  8 43  1  0
  9 10  1  0
  9 44  1  0
  9 45  1  0
 10 11  1  0
 10 46  1  0
 10 47  1  0
 11 12  1  0
 11 48  1  0
 11 49  1  0
 12 13  1  0
 12 50  1  0
 12 51  1  0
 13 14  1  0
 13 17  1  0
 14 15  2  0
 14 52  1  0
 15 16  1  0
 15 53  1  0
 16 17  2  0
 16 18  1  0
 17 54  1  0
 18 55  1  0
 18 56  1  0
 18 57  1  0
 19 20  1  0
 19 21  1  0
 19 22  1  0
 19 23  1  0
 23 24  2  0
 23 25  2  0
 23 26  1  0
M  CHG  2  16   1  26  -1
M  END
$$$$

     RDKit          2D

 30 32  0  0  0  0  0  0  0  0999 V2000
   -6.7011    0.2621    0.0000 C   0  0  0  0  0  0  0  0  0  0  0  0
   -5.8206   -0.9522    0.0000 S   0  0  0  0  0  0  0  0  0  0  0  0
   -4.3286   -0.7968    0.0000 C   0  0  0  0  0  0  0  0  0  0  0  0
   -3.3260   -1.9124    0.0000 N   0  0  0  0  0  0  0  0  0  0  0  0
   -1.9551   -1.3036    0.0000 C   0  0  0  0  0  0  0  0  0  0  0  0
   -0.5853   -1.9150    0.0000 C   0  0  0  0  0  0  0  0  0  0  0  0
    0.6290   -1.0344    0.0000 C   0  0  0  0  0  0  0  0  0  0  0  0
    0.4736    0.4575    0.0000 C   0  0  0  0  0  0  0  0  0  0  0  0
   -0.8962    1.0689    0.0000 C   0  0  0  0  0  0  0  0  0  0  0  0
   -2.1105    0.1883    0.0000 C   0  0  0  0  0  0  0  0  0  0  0  0
   -3.5774    0.5015    0.0000 N   0  0  0  0  0  0  0  0  0  0  0  0
    1.1939    1.1281    0.0000 Cl  0  0  0  0  0  0  0  0  0  0  0  0
    1.9988   -1.6457    0.0000 O   0  0  0  0  0  0  0  0  0  0  0  0
    3.2131   -0.7652    0.0000 C   0  0  0  0  0  0  0  0  0  0  0  0
    4.5829   -1.3765    0.0000 C   0  0  0  0  0  0  0  0  0  0  0  0
    5.7972   -0.4960    0.0000 C   0  0  0  0  0  0  0  0  0  0  0  0
    5.6418    0.9960    0.0000 C   0  0  0  0  0  0  0  0  0  0  0  0
    4.2720    1.6073    0.0000 C   0  0  0  0  0  0  0  0  0  0  0  0
    3.0577    0.7267    0.0000 C   0  0  0  0  0  0  0  0  0  0  0  0
    7.1670   -1.1073    0.0000 Cl  0  0  0  0  0  0  0  0  0  0  0  0
    4.7383   -2.8685    0.0000 Cl  0  0  0  0  0  0  0  0  0  0  0  0
   -7.9155   -0.6185    0.0000 H   0  0  0  0  0  0  0  0  0  0  0  0
   -5.4868    1.1427    0.0000 H   0  0  0  0  0  0  0  0  0  0  0  0
   -7.5817    1.4764    0.0000 H   0  0  0  0  0  0  0  0  0  0  0  0
   -0.4299   -3.4069    0.0000 H   0  0  0  0  0  0  0  0  0  0  0  0
   -1.0516    2.5608    0.0000 H   0  0  0  0  0  0  0  0  0  0  0  0
   -4.1863    1.8724    0.0000 H   0  0  0  0  0  0  0  0  0  0  0  0
    6.8561    1.8765    0.0000 H   0  0  0  0  0  0  0  0  0  0  0  0
    4.1166    3.0992    0.0000 H   0  0  0  0  0  0  0  0  0  0  0  0
    2.2146    1.2344    0.0000 H   0  0  0  0  0  0  0  0  0  0  0  0
  1  2  1  0
  1 22  1  0
  1 23  1  0
  1 24  1  0
  2  3  1  0
  3  4  2  0
  3 11  1  0
  4  5  1  0
  5  6  1  0
  5 10  2  0
  6  7  2  0
  6 25  1  0
  7  8  1  0
  7 13  1  0
  8  9  2  0
  8 12  1  0
  9 10  1  0
  9 26  1  0
 10 11  1  0
 11 27  1  0
 13 14  1  0
 14 15  2  0
 14 19  1  0
 15 16  1  0
 15 21  1  0
 16 17  2  0
 16 20  1  0
 17 18  1  0
 17 28  1  0
 18 19  2  0
 18 29  1  0
 19 30  1  0
M  END
$$$$

     RDKit          2D

 61 60  0  0  0  0  0  0  0  0999 V2000
   13.7000    0.0000    0.0000 C   0  0  0  0  0  0  0  0  0  0  0  0
   12.2000    0.0000    0.0000 C   0  0  0  0  0  0  0  0  0  0  0  0
   10.7000    0.0000    0.0000 C   0  0  0  0  0  0  0  0  0  0  0  0
    9.2000    0.0000    0.0000 C   0  0  0  0  0  0  0  0  0  0  0  0
    7.7000    0.0000    0.0000 C   0  0  0  0  0  0  0  0  0  0  0  0
    6.2000    0.0000    0.0000 C   0  0  0  0  0  0  0  0  0  0  0  0
    4.7000    0.0000    0.0000 C   0  0  0  0  0  0  0  0  0  0  0  0
    3.2000    0.0000    0.0000 C   0  0  0  0  0  0  0  0  0  0  0  0
    1.7000    0.0000    0.0000 C   0  0  0  0  0  0  0  0  0  0  0  0
    0.2000    0.0000    0.0000 C   0  0  0  0  0  0  0  0  0  0  0  0
   -1.3000    0.0000    0.0000 C   0  0  0  0  0  0  0  0  0  0  0  0
   -2.8000    0.0000    0.0000 C   0  0  0  0  0  0  0  0  0  0  0  0
   -4.3000    0.0000    0.0000 C   0  0  0  0  0  0  0  0  0  0  0  0
   -5.8000    0.0000    0.0000 C   0  0  0  0  0  0  0  0  0  0  0  0
   -7.3000    0.0000    0.0000 C   0  0  0  0  0  0  0  0  0  0  0  0
   -8.8000    0.0000    0.0000 C   0  0  0  0  0  0  0  0  0  0  0  0
  -10.3000    0.0000    0.0000 N   0  0  0  0  0  0  0  0  0  0  0  0
  -11.0500   -1.2990    0.0000 C   0  0  0  0  0  0  0  0  0  0  0  0
  -12.5500   -1.2990    0.0000 C   0  0  0  0  0  0  0  0  0  0  0  0
  -13.3000    0.0000    0.0000 C   0  0  0  0  0  0  0  0  0  0  0  0
  -12.5500    1.2990    0.0000 C   0  0  0  0  0  0  0  0  0  0  0  0
  -11.0500    1.2990    0.0000 C   0  0  0  0  0  0  0  0  0  0  0  0
    0.0000    3.5981    0.0000 Cl  0  0  0  0  0  0  0  0  0  0  0  0
   13.7000    1.5000    0.0000 H   0  0  0  0  0  0  0  0  0  0  0  0
   13.7000   -1.5000    0.0000 H   0  0  0  0  0  0  0  0  0  0  0  0
   15.2000    0.0000    0.0000 H   0  0  0  0  0  0  0  0  0  0  0  0
   12.2000   -1.5000    0.0000 H   0  0  0  0  0  0  0  0  0  0  0  0
   12.2000    1.5000    0.0000 H   0  0  0  0  0  0  0  0  0  0  0  0
   10.7000    1.5000    0.0000 H   0  0  0  0  0  0  0  0  0  0  0  0
   10.7000   -1.5000    0.0000 H   0  0  0  0  0  0  0  0  0  0  0  0
    9.2000   -1.5000    0.0000 H   0  0  0  0  0  0  0  0  0  0  0  0
    9.2000    1.5000    0.0000 H   0  0  0  0  0  0  0  0  0  0  0  0
    7.7000    1.5000    0.0000 H   0  0  0  0  0  0  0  0  0  0  0  0
    7.7000   -1.5000    0.0000 H   0  0  0  0  0  0  0  0  0  0  0  0
    6.2000   -1.5000    0.0000 H   0  0  0  0  0  0  0  0  0  0  0  0
    6.2000    1.5000    0.0000 H   0  0  0  0  0  0  0  0  0  0  0  0
    4.7000    1.5000    0.0000 H   0  0  0  0  0  0  0  0  0  0  0  0
    4.7000   -1.5000    0.0000 H   0  0  0  0  0  0  0  0  0  0  0  0
    3.2000   -1.5000    0.0000 H   0  0  0  0  0  0  0  0  0  0  0  0
    3.2000    1.5000    0.0000 H   0  0  0  0  0  0  0  0  0  0  0  0
    1.7000    1.5000    0.0000 H   0  0  0  0  0  0  0  0  0  0  0  0
    1.7000   -1.5000    0.0000 H   0  0  0  0  0  0  0  0  0  0  0  0
    0.2000   -1.5000    0.0000 H   0  0  0  0  0  0  0  0  0  0  0  0
    0.2000    1.5000    0.0000 H   0  0  0  0  0  0  0  0  0  0  0  0
   -1.3000    1.5000    0.0000 H   0  0  0  0  0  0  0  0  0  0  0  0
   -1.3000   -1.5000    0.0000 H   0  0  0  0  0  0  0  0  0  0  0  0
   -2.8000   -1.5000    0.0000 H   0  0  0  0  0  0  0  0  0  0  0  0
   -2.8000    1.5000    0.0000 H   0  0  0  0  0  0  0  0  0  0  0  0
   -4.3000    1.5000    0.0000 H   0  0  0  0  0  0  0  0  0  0  0  0
   -4.3000   -1.5000    0.0000 H   0  0  0  0  0  0  0  0  0  0  0  0
   -5.8000   -1.5000    0.0000 H   0  0  0  0  0  0  0  0  0  0  0  0
   -5.8000    1.5000    0.0000 H   0  0  0  0  0  0  0  0  0  0  0  0
   -7.3000    1.5000    0.0000 H   0  0  0  0  0  0  0  0  0  0  0  0
   -7.3000   -1.5000    0.0000 H   0  0  0  0  0  0  0  0  0  0  0  0
   -8.8000   -1.5000    0.0000 H   0  0  0  0  0  0  0  0  0  0  0  0
   -8.8000    1.5000    0.0000 H   0  0  0  0  0  0  0  0  0  0  0  0
  -10.3000   -2.5981    0.0000 H   0  0  0  0  0  0  0  0  0  0  0  0
  -13.3000   -2.5981    0.0000 H   0  0  0  0  0  0  0  0  0  0  0  0
  -14.8000    0.0000    0.0000 H   0  0  0  0  0  0  0  0  0  0  0  0
  -13.3000    2.5981    0.0000 H   0  0  0  0  0  0  0  0  0  0  0  0
  -10.3000    2.5981    0.0000 H   0  0  0  0  0  0  0  0  0  0  0  0
  1  2  1  0
  1 24  1  0
  1 25  1  0
  1 26  1  0
  2  3  1  0
  2 27  1  0
  2 28  1  0
  3  4  1  0
  3 29  1  0
  3 30  1  0
  4  5  1  0
  4 31  1  0
  4 32  1  0
  5  6  1  0
  5 33  1  0
  5 34  1  0
  6  7  1  0
  6 35  1  0
  6 36  1  0
  7  8  1  0
  7 37  1  0
  7 38  1  0
  8  9  1  0
  8 39  1  0
  8 40  1  0
  9 10  1  0
  9 41  1  0
  9 42  1  0
 10 11  1  0
 10 43  1  0
 10 44  1  0
 11 12  1  0
 11 45  1  0
 11 46  1  0
 12 13  1  0
 12 47  1  0
 12 48  1  0
 13 14  1  0
 13 49  1  0
 13 50  1  0
 14 15  1  0
 14 51  1  0
 14 52  1  0
 15 16  1  0
 15 53  1  0
 15 54  1  0
 16 17  1  0
 16 55  1  0
 16 56  1  0
 17 18  2  0
 17 22  1  0
 18 19  1  0
 18 57  1  0
 19 20  2  0
 19 58  1  0
 20 21  1  0
 20 59  1  0
 21 22  2  0
 21 60  1  0
 22 61  1  0
M  CHG  2  17   1  23  -1
M  END
$$$$

     RDKit          2D

 61 65  0  0  0  0  0  0  0  0999 V2000
    8.7700    1.6327    0.0000 C   0  0  0  0  0  0  0  0  0  0  0  0
    8.8181    0.1335    0.0000 C   0  0  0  0  0  0  0  0  0  0  0  0
    7.5437   -0.6577    0.0000 C   0  0  0  0  0  0  0  0  0  0  0  0
    6.2213    0.0503    0.0000 N   0  0  0  0  0  0  0  0  0  0  0  0
    6.1733    1.5495    0.0000 C   0  0  0  0  0  0  0  0  0  0  0  0
    7.4476    2.3407    0.0000 C   0  0  0  0  0  0  0  0  0  0  0  0
    4.9470   -0.7410    0.0000 C   0  0  0  0  0  0  0  0  0  0  0  0
    3.6726   -1.5322    0.0000 C   0  0  0  0  0  0  0  0  0  0  0  0
    2.3983   -2.3234    0.0000 O   0  0  0  0  0  0  0  0  0  0  0  0
    1.0759   -1.6154    0.0000 C   0  0  0  0  0  0  0  0  0  0  0  0
    1.0278   -0.1162    0.0000 C   0  0  0  0  0  0  0  0  0  0  0  0
   -0.2946    0.5918    0.0000 C   0  0  0  0  0  0  0  0  0  0  0  0
   -1.5689   -0.1994    0.0000 C   0  0  0  0  0  0  0  0  0  0  0  0
   -1.5208   -1.6987    0.0000 C   0  0  0  0  0  0  0  0  0  0  0  0
   -0.1984   -2.4067    0.0000 C   0  0  0  0  0  0  0  0  0  0  0  0
   -2.8913    0.5085    0.0000 C   0  0  0  0  0  0  0  0  0  0  0  0
   -2.7563    2.0025    0.0000 O   0  0  0  0  0  0  0  0  0  0  0  0
   -4.1656   -0.2827    0.0000 C   0  0  0  0  0  0  0  0  0  0  0  0
   -5.5548    0.2832    0.0000 C   0  0  0  0  0  0  0  0  0  0  0  0
   -6.5223   -0.8631    0.0000 S   0  0  0  0  0  0  0  0  0  0  0  0
   -5.7310   -2.1374    0.0000 C   0  0  0  0  0  0  0  0  0  0  0  0
   -4.2746   -1.7787    0.0000 C   0  0  0  0  0  0  0  0  0  0  0  0
   -3.2357   -2.8607    0.0000 C   0  0  0  0  0  0  0  0  0  0  0  0
   -3.6532   -4.3014    0.0000 C   0  0  0  0  0  0  0  0  0  0  0  0
   -5.1097   -4.6601    0.0000 C   0  0  0  0  0  0  0  0  0  0  0  0
   -6.1486   -3.5782    0.0000 C   0  0  0  0  0  0  0  0  0  0  0  0
   -5.5273   -6.1008    0.0000 O   0  0  0  0  0  0  0  0  0  0  0  0
   -5.9135    1.7397    0.0000 C   0  0  0  0  0  0  0  0  0  0  0  0
   -4.8315    2.7786    0.0000 C   0  0  0  0  0  0  0  0  0  0  0  0
   -5.1903    4.2350    0.0000 C   0  0  0  0  0  0  0  0  0  0  0  0
   -6.6310    4.6526    0.0000 C   0  0  0  0  0  0  0  0  0  0  0  0
   -7.7129    3.6137    0.0000 C   0  0  0  0  0  0  0  0  0  0  0  0
   -7.3542    2.1573    0.0000 C   0  0  0  0  0  0  0  0  0  0  0  0
   -6.9897    6.1091    0.0000 O   0  0  0  0  0  0  0  0  0  0  0  0
    9.2376    3.0580    0.0000 H   0  0  0  0  0  0  0  0  0  0  0  0
   10.2548    1.4197    0.0000 H   0  0  0  0  0  0  0  0  0  0  0  0
   10.2862    0.4412    0.0000 H   0  0  0  0  0  0  0  0  0  0  0  0
    9.3760   -1.2589    0.0000 H   0  0  0  0  0  0  0  0  0  0  0  0
    8.5442   -1.7753    0.0000 H   0  0  0  0  0  0  0  0  0  0  0  0
    6.7675   -1.9413    0.0000 H   0  0  0  0  0  0  0  0  0  0  0  0
    4.6786    1.4231    0.0000 H   0  0  0  0  0  0  0  0  0  0  0  0
    5.6153    2.9419    0.0000 H   0  0  0  0  0  0  0  0  0  0  0  0
    6.4471    3.4583    0.0000 H   0  0  0  0  0  0  0  0  0  0  0  0
    8.3745    3.5201    0.0000 H   0  0  0  0  0  0  0  0  0  0  0  0
    4.0063    0.4274    0.0000 H   0  0  0  0  0  0  0  0  0  0  0  0
    5.5770   -2.1022    0.0000 H   0  0  0  0  0  0  0  0  0  0  0  0
    4.4639   -2.8065    0.0000 H   0  0  0  0  0  0  0  0  0  0  0  0
    2.8814   -0.2579    0.0000 H   0  0  0  0  0  0  0  0  0  0  0  0
    2.3022    0.6750    0.0000 H   0  0  0  0  0  0  0  0  0  0  0  0
   -0.3426    2.0910    0.0000 H   0  0  0  0  0  0  0  0  0  0  0  0
   -2.0762   -2.2706    0.0000 H   0  0  0  0  0  0  0  0  0  0  0  0
   -0.1504   -3.9059    0.0000 H   0  0  0  0  0  0  0  0  0  0  0  0
   -2.3756   -2.6489    0.0000 H   0  0  0  0  0  0  0  0  0  0  0  0
   -2.6144   -5.3834    0.0000 H   0  0  0  0  0  0  0  0  0  0  0  0
   -7.6051   -3.9369    0.0000 H   0  0  0  0  0  0  0  0  0  0  0  0
   -4.4884   -7.1828    0.0000 H   0  0  0  0  0  0  0  0  0  0  0  0
   -3.3507    2.5397    0.0000 H   0  0  0  0  0  0  0  0  0  0  0  0
   -4.1083    5.2739    0.0000 H   0  0  0  0  0  0  0  0  0  0  0  0
   -9.1536    4.0313    0.0000 H   0  0  0  0  0  0  0  0  0  0  0  0
   -8.4362    1.1184    0.0000 H   0  0  0  0  0  0  0  0  0  0  0  0
   -8.4304    6.5267    0.0000 H   0  0  0  0  0  0  0  0  0  0  0  0
  1  2  1  0
  1  6  1  0
  1 35  1  0
  1 36  1  0
  2  3  1  0
  2 37  1  0
  2 38  1  0
  3  4  1  0
  3 39  1  0
  3 40  1  0
  4  5  1  0
  4  7  1  0
  5  6  1  0
  5 41  1  0
  5 42  1  0
  6 43  1  0
  6 44  1  0
  7  8  1  0
  7 45  1  0
  7 46  1  0
  8  9  1  0
  8 47  1  0
  8 48  1  0
  9 10  1  0
 10 11  2  0
 10 15  1  0
 11 12  1  0
 11 49  1  0
 12 13  2  0
 12 50  1  0
 13 14  1  0
 13 16  1  0
 14 15  2  0
 14 51  1  0
 15 52  1  0
 16 17  2  0
 16 18  1  0
 18 19  2  0
 18 22  1  0
 19 20  1  0
 19 28  1  0
 20 21  1  0
 21 22  2  0
 21 26  1  0
 22 23  1  0
 23 24  2  0
 23 53  1  0
 24 25  1  0
 24 54  1  0
 25 26  2  0
 25 27  1  0
 26 55  1  0
 27 56  1  0
 28 29  2  0
 28 33  1  0
 29 30  1  0
 29 57  1  0
 30 31  2  0
 30 58  1  0
 31 32  1  0
 31 34  1  0
 32 33  2  0
 32 59  1  0
 33 60  1  0
 34 61  1  0
M  END
$$$$

     RDKit          2D

 36 38  0  0  0  0  0  0  0  0999 V2000
    1.1662    3.8097    0.0000 C   0  0  0  0  0  0  0  0  0  0  0  0
    0.2844    2.5962    0.0000 C   0  0  0  0  0  0  0  0  0  0  0  0
    0.8945    1.2258    0.0000 C   0  0  0  0  0  0  0  0  0  0  0  0
    2.3863    1.0690    0.0000 C   0  0  0  0  0  0  0  0  0  0  0  0
    3.2680    2.2825    0.0000 C   0  0  0  0  0  0  0  0  0  0  0  0
    2.6579    3.6528    0.0000 C   0  0  0  0  0  0  0  0  0  0  0  0
    3.5396    4.8664    0.0000 Cl  0  0  0  0  0  0  0  0  0  0  0  0
    2.7465    0.2598    0.0000 Cl  0  0  0  0  0  0  0  0  0  0  0  0
    0.0128    0.0123    0.0000 C   0  0  0  0  0  0  0  0  0  0  0  0
    1.2263   -0.8694    0.0000 C   0  0  0  0  0  0  0  0  0  0  0  0
    2.4398   -1.7511    0.0000 N   0  0  0  0  0  0  0  0  0  0  0  0
    2.4398   -3.2511    0.0000 C   0  0  0  0  0  0  0  0  0  0  0  0
    3.8663   -3.7146    0.0000 C   0  0  0  0  0  0  0  0  0  0  0  0
    4.7481   -2.5011    0.0000 N   0  0  0  0  0  0  0  0  0  0  0  0
    3.8664   -1.2876    0.0000 C   0  0  0  0  0  0  0  0  0  0  0  0
   -1.2007    0.8941    0.0000 O   0  0  0  0  0  0  0  0  0  0  0  0
   -2.5710    0.2840    0.0000 C   0  0  0  0  0  0  0  0  0  0  0  0
   -3.9414   -0.3261    0.0000 C   0  0  0  0  0  0  0  0  0  0  0  0
   -4.2533   -1.7933    0.0000 C   0  0  0  0  0  0  0  0  0  0  0  0
   -5.7451   -1.9501    0.0000 S   0  0  0  0  0  0  0  0  0  0  0  0
   -6.3551   -0.5797    0.0000 C   0  0  0  0  0  0  0  0  0  0  0  0
   -5.2404    0.4239    0.0000 C   0  0  0  0  0  0  0  0  0  0  0  0
   -3.2496   -2.9080    0.0000 Cl  0  0  0  0  0  0  0  0  0  0  0  0
    0.5561    5.1800    0.0000 H   0  0  0  0  0  0  0  0  0  0  0  0
   -1.2073    2.7530    0.0000 H   0  0  0  0  0  0  0  0  0  0  0  0
    4.7598    2.1257    0.0000 H   0  0  0  0  0  0  0  0  0  0  0  0
   -0.8689   -1.2012    0.0000 H   0  0  0  0  0  0  0  0  0  0  0  0
    0.3446   -2.0829    0.0000 H   0  0  0  0  0  0  0  0  0  0  0  0
    1.9049   -0.3001    0.0000 H   0  0  0  0  0  0  0  0  0  0  0  0
    1.2262   -4.1327    0.0000 H   0  0  0  0  0  0  0  0  0  0  0  0
    4.3298   -5.1412    0.0000 H   0  0  0  0  0  0  0  0  0  0  0  0
    4.3300    0.1390    0.0000 H   0  0  0  0  0  0  0  0  0  0  0  0
   -3.1811    1.6543    0.0000 H   0  0  0  0  0  0  0  0  0  0  0  0
   -1.9610   -1.0864    0.0000 H   0  0  0  0  0  0  0  0  0  0  0  0
   -7.8223   -0.2678    0.0000 H   0  0  0  0  0  0  0  0  0  0  0  0
   -5.3971    1.9157    0.0000 H   0  0  0  0  0  0  0  0  0  0  0  0
  1  2  2  0
  1  6  1  0
  1 24  1  0
  2  3  1  0
  2 25  1  0
  3  4  2  0
  3  9  1  0
  4  5  1  0
  4  8  1  0
  5  6  2  0
  5 26  1  0
  6  7  1  0
  9 10  1  0
  9 16  1  0
  9 27  1  6
 10 11  1  0
 10 28  1  0
 10 29  1  0
 11 12  1  0
 11 15  1  0
 12 13  2  0
 12 30  1  0
 13 14  1  0
 13 31  1  0
 14 15  2  0
 15 32  1  0
 16 17  1  0
 17 18  1  0
 17 33  1  0
 17 34  1  0
 18 19  2  0
 18 22  1  0
 19 20  1  0
 19 23  1  0
 20 21  1  0
 21 22  2  0
 21 35  1  0
 22 36  1  0
M  END
$$$$

     RDKit          2D

 75 79  0  0  1  0  0  0  0  0999 V2000
    2.0865   -5.2602    0.0000 C   0  0  0  0  0  0  0  0  0  0  0  0
    1.4192   -3.9168    0.0000 C   0  0  0  0  0  0  0  0  0  0  0  0
    0.7520   -2.5734    0.0000 C   0  0  0  0  0  0  0  0  0  0  0  0
   -0.4552   -3.4638    0.0000 C   0  0  0  0  0  0  0  0  0  0  0  0
   -1.8299   -2.8636    0.0000 N   0  0  0  0  0  0  0  0  0  0  0  0
   -3.0370   -3.7541    0.0000 C   0  0  0  0  0  0  0  0  0  0  0  0
   -4.4117   -3.1539    0.0000 C   0  0  0  0  0  0  0  0  0  0  0  0
   -4.5792   -1.6633    0.0000 C   0  0  0  0  0  0  0  0  0  0  0  0
   -5.9539   -1.0631    0.0000 C   0  0  0  0  0  0  0  0  0  0  0  0
   -6.1215    0.4275    0.0000 C   0  0  0  0  0  0  0  0  0  0  0  0
   -4.9144    1.3179    0.0000 C   0  0  0  0  0  0  0  0  0  0  0  0
   -3.5397    0.7178    0.0000 C   0  0  0  0  0  0  0  0  0  0  0  0
   -3.3721   -0.7729    0.0000 C   0  0  0  0  0  0  0  0  0  0  0  0
   -1.9974   -1.3730    0.0000 C   0  0  0  0  0  0  0  0  0  0  0  0
   -0.7903   -0.4826    0.0000 C   0  0  0  0  0  0  0  0  0  0  0  0
    0.5844   -1.0828    0.0000 C   0  0  0  0  0  0  0  0  0  0  0  0
    2.0814   -1.1766    0.0000 C   0  0  0  0  0  0  0  0  0  0  0  0
    3.5785   -1.2704    0.0000 C   0  0  0  0  0  0  0  0  0  0  0  0
    3.4109    0.2202    0.0000 C   0  0  0  0  0  0  0  0  0  0  0  0
    2.0362    0.8204    0.0000 C   0  0  0  0  0  0  0  0  0  0  0  0
    1.8687    2.3110    0.0000 C   0  0  0  0  0  0  0  0  0  0  0  0
    3.0758    3.2014    0.0000 C   0  0  0  0  0  0  0  0  0  0  0  0
    4.4505    2.6012    0.0000 C   0  0  0  0  0  0  0  0  0  0  0  0
    4.6181    1.1106    0.0000 C   0  0  0  0  0  0  0  0  0  0  0  0
    5.9927    0.5104    0.0000 C   0  0  0  0  0  0  0  0  0  0  0  0
    6.1603   -0.9802    0.0000 C   0  0  0  0  0  0  0  0  0  0  0  0
    4.9532   -1.8706    0.0000 N   0  0  0  0  0  0  0  0  0  0  0  0
    2.9082    4.6920    0.0000 O   0  0  0  0  0  0  0  0  0  0  0  0
    4.1153    5.5825    0.0000 C   0  0  0  0  0  0  0  0  0  0  0  0
    0.4940    2.9112    0.0000 O   0  0  0  0  0  0  0  0  0  0  0  0
    0.3264    4.4018    0.0000 C   0  0  0  0  0  0  0  0  0  0  0  0
   -5.0820    2.8086    0.0000 O   0  0  0  0  0  0  0  0  0  0  0  0
   -3.8748    3.6990    0.0000 C   0  0  0  0  0  0  0  0  0  0  0  0
   -7.4962    1.0277    0.0000 O   0  0  0  0  0  0  0  0  0  0  0  0
   -7.6638    2.5183    0.0000 C   0  0  0  0  0  0  0  0  0  0  0  0
    3.4299   -4.5929    0.0000 H   0  0  0  0  0  0  0  0  0  0  0  0
    0.7431   -5.9275    0.0000 H   0  0  0  0  0  0  0  0  0  0  0  0
    2.7538   -6.6036    0.0000 H   0  0  0  0  0  0  0  0  0  0  0  0
    0.7539   -4.3558    0.0000 H   0  0  0  0  0  0  0  0  0  0  0  0
    2.8340   -3.4182    0.0000 H   0  0  0  0  0  0  0  0  0  0  0  0
    2.2318   -2.3281    0.0000 H   0  0  0  0  0  0  0  0  0  0  0  0
    0.0510   -4.0797    0.0000 H   0  0  0  0  0  0  0  0  0  0  0  0
   -1.1264   -4.8052    0.0000 H   0  0  0  0  0  0  0  0  0  0  0  0
   -3.8668   -5.0037    0.0000 H   0  0  0  0  0  0  0  0  0  0  0  0
   -2.0846   -4.9130    0.0000 H   0  0  0  0  0  0  0  0  0  0  0  0
   -5.9087   -3.0601    0.0000 H   0  0  0  0  0  0  0  0  0  0  0  0
   -4.7640   -4.6119    0.0000 H   0  0  0  0  0  0  0  0  0  0  0  0
   -7.1611   -1.9535    0.0000 H   0  0  0  0  0  0  0  0  0  0  0  0
   -2.3326    1.6082    0.0000 H   0  0  0  0  0  0  0  0  0  0  0  0
   -2.3455    0.0860    0.0000 H   0  0  0  0  0  0  0  0  0  0  0  0
   -1.7427    0.6763    0.0000 H   0  0  0  0  0  0  0  0  0  0  0  0
    0.0395    0.7670    0.0000 H   0  0  0  0  0  0  0  0  0  0  0  0
    0.7564    0.4073    0.0000 H   0  0  0  0  0  0  0  0  0  0  0  0
    1.8102    0.2987    0.0000 H   0  0  0  0  0  0  0  0  0  0  0  0
    2.1708   -2.6739    0.0000 H   0  0  0  0  0  0  0  0  0  0  0  0
    3.4065   -2.7605    0.0000 H   0  0  0  0  0  0  0  0  0  0  0  0
    0.7296    0.0837    0.0000 H   0  0  0  0  0  0  0  0  0  0  0  0
    5.6576    3.4917    0.0000 H   0  0  0  0  0  0  0  0  0  0  0  0
    7.4898    0.4166    0.0000 H   0  0  0  0  0  0  0  0  0  0  0  0
    6.3451    1.9685    0.0000 H   0  0  0  0  0  0  0  0  0  0  0  0
    6.8276   -2.3236    0.0000 H   0  0  0  0  0  0  0  0  0  0  0  0
    7.5992   -0.5563    0.0000 H   0  0  0  0  0  0  0  0  0  0  0  0
    5.1208   -3.3612    0.0000 H   0  0  0  0  0  0  0  0  0  0  0  0
    3.2249    6.7896    0.0000 H   0  0  0  0  0  0  0  0  0  0  0  0
    5.0058    4.3753    0.0000 H   0  0  0  0  0  0  0  0  0  0  0  0
    5.3225    6.4729    0.0000 H   0  0  0  0  0  0  0  0  0  0  0  0
   -1.1642    4.2342    0.0000 H   0  0  0  0  0  0  0  0  0  0  0  0
    1.8170    4.5694    0.0000 H   0  0  0  0  0  0  0  0  0  0  0  0
    0.1588    5.8924    0.0000 H   0  0  0  0  0  0  0  0  0  0  0  0
   -4.7653    4.9061    0.0000 H   0  0  0  0  0  0  0  0  0  0  0  0
   -2.9844    2.4919    0.0000 H   0  0  0  0  0  0  0  0  0  0  0  0
   -2.6677    4.5894    0.0000 H   0  0  0  0  0  0  0  0  0  0  0  0
   -9.1544    2.3507    0.0000 H   0  0  0  0  0  0  0  0  0  0  0  0
   -6.1732    2.6859    0.0000 H   0  0  0  0  0  0  0  0  0  0  0  0
   -7.8313    4.0089    0.0000 H   0  0  0  0  0  0  0  0  0  0  0  0
  1  2  1  0
  1 36  1  0
  1 37  1  0
  1 38  1  0
  2  3  1  0
  2 39  1  0
  2 40  1  0
  3  4  1  0
  3 16  1  0
  3 41  1  6
  4  5  1  0
  4 42  1  0
  4 43  1  0
  5  6  1  0
  5 14  1  0
  6  7  1  0
  6 44  1  0
  6 45  1  0
  7  8  1  0
  7 46  1  0
  7 47  1  0
  8  9  2  0
  8 13  1  0
  9 10  1  0
  9 48  1  0
 10 11  2  0
 10 34  1  0
 11 12  1  0
 11 32  1  0
 12 13  2  0
 12 49  1  0
 13 14  1  0
 14 15  1  0
 14 50  1  1
 15 16  1  0
 15 51  1  0
 15 52  1  0
 16 53  1  1
 16 17  1  0
 17 54  1  0
 17 55  1  0
 18 19  1  0
 18 27  1  0
 18 56  1  1
 18 17  1  0
 19 20  2  0
 19 24  1  0
 20 21  1  0
 20 57  1  0
 21 22  2  0
 21 30  1  0
 22 23  1  0
 22 28  1  0
 23 24  2  0
 23 58  1  0
 24 25  1  0
 25 26  1  0
 25 59  1  0
 25 60  1  0
 26 27  1  0
 26 61  1  0
 26 62  1  0
 27 63  1  0
 28 29  1  0
 29 64  1  0
 29 65  1  0
 29 66  1  0
 30 31  1  0
 31 67  1  0
 31 68  1  0
 31 69  1  0
 32 33  1  0
 33 70  1  0
 33 71  1  0
 33 72  1  0
 34 35  1  0
 35 73  1  0
 35 74  1  0
 35 75  1  0
M  END
$$$$

     RDKit          2D

 64 63  0  0  0  0  0  0  0  0999 V2000
   10.9695   -0.1717    0.0000 C   0  0  0  0  0  0  0  0  0  0  0  0
    9.4700   -0.1321    0.0000 C   0  0  0  0  0  0  0  0  0  0  0  0
    7.9705   -0.0925    0.0000 C   0  0  0  0  0  0  0  0  0  0  0  0
    6.4710   -0.0529    0.0000 C   0  0  0  0  0  0  0  0  0  0  0  0
    4.9716   -0.0133    0.0000 C   0  0  0  0  0  0  0  0  0  0  0  0
    3.4721    0.0262    0.0000 C   0  0  0  0  0  0  0  0  0  0  0  0
    1.9726    0.0658    0.0000 C   0  0  0  0  0  0  0  0  0  0  0  0
    0.4731    0.1054    0.0000 C   0  0  0  0  0  0  0  0  0  0  0  0
   -1.0264    0.1450    0.0000 C   0  0  0  0  0  0  0  0  0  0  0  0
   -2.5258    0.1846    0.0000 C   0  0  0  0  0  0  0  0  0  0  0  0
   -4.0253    0.2242    0.0000 C   0  0  0  0  0  0  0  0  0  0  0  0
   -5.5248    0.2638    0.0000 C   0  0  0  0  0  0  0  0  0  0  0  0
   -7.0243    0.3034    0.0000 N   0  0  0  0  0  0  0  0  0  0  0  0
   -7.8736    1.5398    0.0000 C   0  0  0  0  0  0  0  0  0  0  0  0
   -9.3119    1.1141    0.0000 C   0  0  0  0  0  0  0  0  0  0  0  0
   -9.3515   -0.3854    0.0000 N   0  0  0  0  0  0  0  0  0  0  0  0
   -7.9377   -0.8864    0.0000 C   0  0  0  0  0  0  0  0  0  0  0  0
  -10.5879   -1.2347    0.0000 C   0  0  0  0  0  0  0  0  0  0  0  0
    2.5981    5.2527    0.0000 C   0  0  0  0  0  0  0  0  0  0  0  0
    1.8481    3.9536    0.0000 F   0  0  0  0  0  0  0  0  0  0  0  0
    3.3481    6.5517    0.0000 F   0  0  0  0  0  0  0  0  0  0  0  0
    3.8971    4.5027    0.0000 F   0  0  0  0  0  0  0  0  0  0  0  0
    1.2990    6.0027    0.0000 S   0  0  0  0  0  0  0  0  0  0  0  0
    2.0490    7.3017    0.0000 O   0  0  0  0  0  0  0  0  0  0  0  0
    0.5490    4.7036    0.0000 O   0  0  0  0  0  0  0  0  0  0  0  0
    0.0000    6.7527    0.0000 N   0  0  0  0  0  0  0  0  0  0  0  0
   -1.2990    6.0027    0.0000 S   0  0  0  0  0  0  0  0  0  0  0  0
   -0.5490    4.7036    0.0000 O   0  0  0  0  0  0  0  0  0  0  0  0
   -2.0490    7.3017    0.0000 O   0  0  0  0  0  0  0  0  0  0  0  0
   -2.5981    5.2527    0.0000 C   0  0  0  0  0  0  0  0  0  0  0  0
   -1.8481    3.9536    0.0000 F   0  0  0  0  0  0  0  0  0  0  0  0
   -3.3481    6.5517    0.0000 F   0  0  0  0  0  0  0  0  0  0  0  0
   -3.8971    4.5027    0.0000 F   0  0  0  0  0  0  0  0  0  0  0  0
   11.0091    1.3278    0.0000 H   0  0  0  0  0  0  0  0  0  0  0  0
   10.9299   -1.6712    0.0000 H   0  0  0  0  0  0  0  0  0  0  0  0
   12.4689   -0.2113    0.0000 H   0  0  0  0  0  0  0  0  0  0  0  0
    9.4304   -1.6316    0.0000 H   0  0  0  0  0  0  0  0  0  0  0  0
    9.5096    1.3673    0.0000 H   0  0  0  0  0  0  0  0  0  0  0  0
    8.0101    1.4069    0.0000 H   0  0  0  0  0  0  0  0  0  0  0  0
    7.9309   -1.5920    0.0000 H   0  0  0  0  0  0  0  0  0  0  0  0
    6.4314   -1.5524    0.0000 H   0  0  0  0  0  0  0  0  0  0  0  0
    6.5106    1.4465    0.0000 H   0  0  0  0  0  0  0  0  0  0  0  0
    5.0112    1.4861    0.0000 H   0  0  0  0  0  0  0  0  0  0  0  0
    4.9320   -1.5128    0.0000 H   0  0  0  0  0  0  0  0  0  0  0  0
    3.4325   -1.4732    0.0000 H   0  0  0  0  0  0  0  0  0  0  0  0
    3.5117    1.5257    0.0000 H   0  0  0  0  0  0  0  0  0  0  0  0
    2.0122    1.5653    0.0000 H   0  0  0  0  0  0  0  0  0  0  0  0
    1.9330   -1.4336    0.0000 H   0  0  0  0  0  0  0  0  0  0  0  0
    0.4335   -1.3940    0.0000 H   0  0  0  0  0  0  0  0  0  0  0  0
    0.5127    1.6049    0.0000 H   0  0  0  0  0  0  0  0  0  0  0  0
   -0.9868    1.6445    0.0000 H   0  0  0  0  0  0  0  0  0  0  0  0
   -1.0659   -1.3544    0.0000 H   0  0  0  0  0  0  0  0  0  0  0  0
   -2.5654   -1.3148    0.0000 H   0  0  0  0  0  0  0  0  0  0  0  0
   -2.4862    1.6841    0.0000 H   0  0  0  0  0  0  0  0  0  0  0  0
   -3.9857    1.7237    0.0000 H   0  0  0  0  0  0  0  0  0  0  0  0
   -4.0649   -1.2753    0.0000 H   0  0  0  0  0  0  0  0  0  0  0  0
   -5.5644   -1.2357    0.0000 H   0  0  0  0  0  0  0  0  0  0  0  0
   -5.4852    1.7633    0.0000 H   0  0  0  0  0  0  0  0  0  0  0  0
   -7.3726    2.9536    0.0000 H   0  0  0  0  0  0  0  0  0  0  0  0
  -10.5018    2.0275    0.0000 H   0  0  0  0  0  0  0  0  0  0  0  0
   -7.5120   -2.3247    0.0000 H   0  0  0  0  0  0  0  0  0  0  0  0
  -11.4372    0.0016    0.0000 H   0  0  0  0  0  0  0  0  0  0  0  0
   -9.7386   -2.4711    0.0000 H   0  0  0  0  0  0  0  0  0  0  0  0
  -11.8243   -2.0841    0.0000 H   0  0  0  0  0  0  0  0  0  0  0  0
  1  2  1  0
  1 34  1  0
  1 35  1  0
  1 36  1  0
  2  3  1  0
  2 37  1  0
  2 38  1  0
  3  4  1  0
  3 39  1  0
  3 40  1  0
  4  5  1  0
  4 41  1  0
  4 42  1  0
  5  6  1  0
  5 43  1  0
  5 44  1  0
  6  7  1  0
  6 45  1  0
  6 46  1  0
  7  8  1  0
  7 47  1  0
  7 48  1  0
  8  9  1  0
  8 49  1  0
  8 50  1  0
  9 10  1  0
  9 51  1  0
  9 52  1  0
 10 11  1  0
 10 53  1  0
 10 54  1  0
 11 12  1  0
 11 55  1  0
 11 56  1  0
 12 13  1  0
 12 57  1  0
 12 58  1  0
 13 14  1  0
 13 17  1  0
 14 15  2  0
 14 59  1  0
 15 16  1  0
 15 60  1  0
 16 17  2  0
 16 18  1  0
 17 61  1  0
 18 62  1  0
 18 63  1  0
 18 64  1  0
 19 20  1  0
 19 21  1  0
 19 22  1  0
 19 23  1  0
 23 24  2  0
 23 25  2  0
 23 26  1  0
 26 27  1  0
 27 28  2  0
 27 29  2  0
 27 30  1  0
 30 31  1  0
 30 32  1  0
 30 33  1  0
M  CHG  2  16   1  26  -1
M  END
$$$$

     RDKit          2D

144147  0  0  1  0  0  0  0  0999 V2000
   -0.0738   -9.4786    0.0000 C   0  0  0  0  0  0  0  0  0  0  0  0
   -0.7421   -8.1357    0.0000 C   0  0  0  0  0  0  0  0  0  0  0  0
   -1.9485   -9.0270    0.0000 C   0  0  0  0  0  0  0  0  0  0  0  0
   -3.3237   -8.4278    0.0000 C   0  0  0  0  0  0  0  0  0  0  0  0
   -3.4923   -6.9373    0.0000 C   0  0  0  0  0  0  0  0  0  0  0  0
   -4.9586   -6.6212    0.0000 C   0  0  0  0  0  0  0  0  0  0  0  0
   -6.3227   -5.9973    0.0000 C   0  0  0  0  0  0  0  0  0  0  0  0
   -7.5208   -5.0947    0.0000 C   0  0  0  0  0  0  0  0  0  0  0  0
   -8.2291   -3.7725    0.0000 C   0  0  0  0  0  0  0  0  0  0  0  0
   -9.2051   -2.6334    0.0000 C   0  0  0  0  0  0  0  0  0  0  0  0
   -9.2928   -1.1360    0.0000 C   0  0  0  0  0  0  0  0  0  0  0  0
   -9.7004    0.3076    0.0000 C   0  0  0  0  0  0  0  0  0  0  0  0
   -9.1512    1.7034    0.0000 C   0  0  0  0  0  0  0  0  0  0  0  0
   -8.9150    3.1847    0.0000 C   0  0  0  0  0  0  0  0  0  0  0  0
   -8.0786    4.4299    0.0000 C   0  0  0  0  0  0  0  0  0  0  0  0
   -6.9941    5.4661    0.0000 C   0  0  0  0  0  0  0  0  0  0  0  0
   -5.7122    6.2450    0.0000 C   0  0  0  0  0  0  0  0  0  0  0  0
   -6.3479    7.6036    0.0000 O   0  0  0  0  0  0  0  0  0  0  0  0
   -4.2928    6.7301    0.0000 C   0  0  0  0  0  0  0  0  0  0  0  0
   -2.8023    6.8988    0.0000 C   0  0  0  0  0  0  0  0  0  0  0  0
   -1.3104    6.7431    0.0000 C   0  0  0  0  0  0  0  0  0  0  0  0
   -0.0218    5.9753    0.0000 C   0  0  0  0  0  0  0  0  0  0  0  0
    1.4018    5.5025    0.0000 C   0  0  0  0  0  0  0  0  0  0  0  0
    2.4952    4.4757    0.0000 C   0  0  0  0  0  0  0  0  0  0  0  0
    3.7447    5.3056    0.0000 O   0  0  0  0  0  0  0  0  0  0  0  0
    3.3424    3.2378    0.0000 C   0  0  0  0  0  0  0  0  0  0  0  0
    3.9036    1.8468    0.0000 C   0  0  0  0  0  0  0  0  0  0  0  0
    4.1527    0.3676    0.0000 O   0  0  0  0  0  0  0  0  0  0  0  0
    4.0780   -1.1305    0.0000 C   0  0  0  0  0  0  0  0  0  0  0  0
    5.5724   -1.0013    0.0000 O   0  0  0  0  0  0  0  0  0  0  0  0
    3.6830   -2.5776    0.0000 C   0  0  0  0  0  0  0  0  0  0  0  0
    5.1818   -2.5169    0.0000 C   0  0  0  0  0  0  0  0  0  0  0  0
    5.9837   -3.7846    0.0000 C   0  0  0  0  0  0  0  0  0  0  0  0
    5.2868   -5.1129    0.0000 C   0  0  0  0  0  0  0  0  0  0  0  0
    3.7880   -5.1735    0.0000 C   0  0  0  0  0  0  0  0  0  0  0  0
    2.9861   -3.9059    0.0000 N   0  0  0  0  0  0  0  0  0  0  0  0
    2.0200   -5.0533    0.0000 C   0  0  0  0  0  0  0  0  0  0  0  0
    2.9163   -6.2561    0.0000 O   0  0  0  0  0  0  0  0  0  0  0  0
    0.8298   -5.9663    0.0000 C   0  0  0  0  0  0  0  0  0  0  0  0
    1.6087   -7.2482    0.0000 O   0  0  0  0  0  0  0  0  0  0  0  0
   -0.9107   -6.6452    0.0000 C   0  0  0  0  0  0  0  0  0  0  0  0
   -2.2858   -6.0460    0.0000 O   0  0  0  0  0  0  0  0  0  0  0  0
    0.2958   -5.7539    0.0000 O   0  0  0  0  0  0  0  0  0  0  0  0
    5.3433    1.4257    0.0000 C   0  0  0  0  0  0  0  0  0  0  0  0
    5.7644    2.8654    0.0000 C   0  0  0  0  0  0  0  0  0  0  0  0
    6.7830    1.0046    0.0000 C   0  0  0  0  0  0  0  0  0  0  0  0
    8.2227    0.5835    0.0000 C   0  0  0  0  0  0  0  0  0  0  0  0
    8.3874    2.0745    0.0000 C   0  0  0  0  0  0  0  0  0  0  0  0
    9.7609    2.6773    0.0000 C   0  0  0  0  0  0  0  0  0  0  0  0
   10.9697    1.7892    0.0000 C   0  0  0  0  0  0  0  0  0  0  0  0
   10.8051    0.2983    0.0000 C   0  0  0  0  0  0  0  0  0  0  0  0
    9.4315   -0.3046    0.0000 C   0  0  0  0  0  0  0  0  0  0  0  0
   12.3019    0.3950    0.0000 O   0  0  0  0  0  0  0  0  0  0  0  0
   13.1341   -0.8530    0.0000 C   0  0  0  0  0  0  0  0  0  0  0  0
   11.6344    3.1339    0.0000 O   0  0  0  0  0  0  0  0  0  0  0  0
    2.6548    6.3272    0.0000 C   0  0  0  0  0  0  0  0  0  0  0  0
   -0.9943    8.2094    0.0000 C   0  0  0  0  0  0  0  0  0  0  0  0
   -2.0114    8.1733    0.0000 O   0  0  0  0  0  0  0  0  0  0  0  0
   -3.7944    8.1449    0.0000 O   0  0  0  0  0  0  0  0  0  0  0  0
   -4.7704    9.2839    0.0000 C   0  0  0  0  0  0  0  0  0  0  0  0
   -7.1358    6.9594    0.0000 C   0  0  0  0  0  0  0  0  0  0  0  0
   -9.9315    4.2877    0.0000 C   0  0  0  0  0  0  0  0  0  0  0  0
   -8.5476   -6.1881    0.0000 C   0  0  0  0  0  0  0  0  0  0  0  0
   -7.6575   -6.6816    0.0000 O   0  0  0  0  0  0  0  0  0  0  0  0
   -8.9176   -5.8678    0.0000 C   0  0  0  0  0  0  0  0  0  0  0  0
    1.2691   -8.8104    0.0000 H   0  0  0  0  0  0  0  0  0  0  0  0
   -1.3253  -10.3056    0.0000 H   0  0  0  0  0  0  0  0  0  0  0  0
    0.5944  -10.8215    0.0000 H   0  0  0  0  0  0  0  0  0  0  0  0
    0.6965   -7.7108    0.0000 H   0  0  0  0  0  0  0  0  0  0  0  0
   -0.9954  -10.1852    0.0000 H   0  0  0  0  0  0  0  0  0  0  0  0
   -2.7774  -10.2772    0.0000 H   0  0  0  0  0  0  0  0  0  0  0  0
   -3.6750   -9.8861    0.0000 H   0  0  0  0  0  0  0  0  0  0  0  0
   -4.8209   -8.5182    0.0000 H   0  0  0  0  0  0  0  0  0  0  0  0
   -4.9716   -6.6886    0.0000 H   0  0  0  0  0  0  0  0  0  0  0  0
   -4.7837   -8.1110    0.0000 H   0  0  0  0  0  0  0  0  0  0  0  0
   -5.9900   -7.7103    0.0000 H   0  0  0  0  0  0  0  0  0  0  0  0
   -6.4722   -7.4898    0.0000 H   0  0  0  0  0  0  0  0  0  0  0  0
   -6.9912   -2.9253    0.0000 H   0  0  0  0  0  0  0  0  0  0  0  0
  -10.4430   -3.4806    0.0000 H   0  0  0  0  0  0  0  0  0  0  0  0
   -7.8137   -0.8869    0.0000 H   0  0  0  0  0  0  0  0  0  0  0  0
  -11.1796    0.0585    0.0000 H   0  0  0  0  0  0  0  0  0  0  0  0
   -7.7042    1.3084    0.0000 H   0  0  0  0  0  0  0  0  0  0  0  0
  -10.2874    2.5793    0.0000 H   0  0  0  0  0  0  0  0  0  0  0  0
   -9.4691    4.9925    0.0000 H   0  0  0  0  0  0  0  0  0  0  0  0
   -8.5380    5.8578    0.0000 H   0  0  0  0  0  0  0  0  0  0  0  0
   -8.3253    6.1574    0.0000 H   0  0  0  0  0  0  0  0  0  0  0  0
   -5.3484    7.7958    0.0000 H   0  0  0  0  0  0  0  0  0  0  0  0
   -3.2736    8.3228    0.0000 H   0  0  0  0  0  0  0  0  0  0  0  0
   -0.6457    4.6112    0.0000 H   0  0  0  0  0  0  0  0  0  0  0  0
    1.0264    6.9548    0.0000 H   0  0  0  0  0  0  0  0  0  0  0  0
    4.2400    4.4397    0.0000 H   0  0  0  0  0  0  0  0  0  0  0  0
    4.8191    3.5012    0.0000 H   0  0  0  0  0  0  0  0  0  0  0  0
    4.9106    2.9586    0.0000 H   0  0  0  0  0  0  0  0  0  0  0  0
    4.8565   -1.6433    0.0000 H   0  0  0  0  0  0  0  0  0  0  0  0
    6.5694   -1.9473    0.0000 H   0  0  0  0  0  0  0  0  0  0  0  0
    5.5874   -1.0728    0.0000 H   0  0  0  0  0  0  0  0  0  0  0  0
    7.1708   -4.7015    0.0000 H   0  0  0  0  0  0  0  0  0  0  0  0
    7.0928   -2.7747    0.0000 H   0  0  0  0  0  0  0  0  0  0  0  0
    5.0863   -6.5994    0.0000 H   0  0  0  0  0  0  0  0  0  0  0  0
    6.7159   -5.5685    0.0000 H   0  0  0  0  0  0  0  0  0  0  0  0
    2.6968   -6.2027    0.0000 H   0  0  0  0  0  0  0  0  0  0  0  0
    4.1080   -6.6390    0.0000 H   0  0  0  0  0  0  0  0  0  0  0  0
    0.1271   -4.2634    0.0000 H   0  0  0  0  0  0  0  0  0  0  0  0
    5.2831   -0.0731    0.0000 H   0  0  0  0  0  0  0  0  0  0  0  0
    7.2041    2.4443    0.0000 H   0  0  0  0  0  0  0  0  0  0  0  0
    4.4694    3.6223    0.0000 H   0  0  0  0  0  0  0  0  0  0  0  0
    6.1855    4.3051    0.0000 H   0  0  0  0  0  0  0  0  0  0  0  0
    7.2041    2.4443    0.0000 H   0  0  0  0  0  0  0  0  0  0  0  0
    6.3619   -0.4351    0.0000 H   0  0  0  0  0  0  0  0  0  0  0  0
    7.5580   -0.7612    0.0000 H   0  0  0  0  0  0  0  0  0  0  0  0
    8.0322    3.5318    0.0000 H   0  0  0  0  0  0  0  0  0  0  0  0
    6.8905    1.9777    0.0000 H   0  0  0  0  0  0  0  0  0  0  0  0
   10.8454    3.7136    0.0000 H   0  0  0  0  0  0  0  0  0  0  0  0
    8.9287    3.9253    0.0000 H   0  0  0  0  0  0  0  0  0  0  0  0
   12.4094    1.3681    0.0000 H   0  0  0  0  0  0  0  0  0  0  0  0
   10.9799   -1.1915    0.0000 H   0  0  0  0  0  0  0  0  0  0  0  0
    8.3470   -1.3408    0.0000 H   0  0  0  0  0  0  0  0  0  0  0  0
   10.2637   -1.5525    0.0000 H   0  0  0  0  0  0  0  0  0  0  0  0
   14.3821   -0.0208    0.0000 H   0  0  0  0  0  0  0  0  0  0  0  0
   11.9969   -1.8311    0.0000 H   0  0  0  0  0  0  0  0  0  0  0  0
   13.9663   -2.1010    0.0000 H   0  0  0  0  0  0  0  0  0  0  0  0
   13.1313    3.2306    0.0000 H   0  0  0  0  0  0  0  0  0  0  0  0
    1.9890    7.6713    0.0000 H   0  0  0  0  0  0  0  0  0  0  0  0
    3.7581    5.3110    0.0000 H   0  0  0  0  0  0  0  0  0  0  0  0
    3.9077    7.1519    0.0000 H   0  0  0  0  0  0  0  0  0  0  0  0
   -2.3405    8.8709    0.0000 H   0  0  0  0  0  0  0  0  0  0  0  0
    0.4720    7.8933    0.0000 H   0  0  0  0  0  0  0  0  0  0  0  0
   -0.6782    9.6757    0.0000 H   0  0  0  0  0  0  0  0  0  0  0  0
   -2.7197    9.4955    0.0000 H   0  0  0  0  0  0  0  0  0  0  0  0
   -3.6314   10.2600    0.0000 H   0  0  0  0  0  0  0  0  0  0  0  0
   -6.1117    8.6125    0.0000 H   0  0  0  0  0  0  0  0  0  0  0  0
   -5.7464   10.4230    0.0000 H   0  0  0  0  0  0  0  0  0  0  0  0
   -5.7212    7.4583    0.0000 H   0  0  0  0  0  0  0  0  0  0  0  0
   -8.6352    7.0008    0.0000 H   0  0  0  0  0  0  0  0  0  0  0  0
   -7.2775    8.4527    0.0000 H   0  0  0  0  0  0  0  0  0  0  0  0
  -11.1502    3.4133    0.0000 H   0  0  0  0  0  0  0  0  0  0  0  0
   -9.1072    5.5410    0.0000 H   0  0  0  0  0  0  0  0  0  0  0  0
  -10.9480    5.3908    0.0000 H   0  0  0  0  0  0  0  0  0  0  0  0
   -9.7581   -5.3023    0.0000 H   0  0  0  0  0  0  0  0  0  0  0  0
   -7.7351   -7.4490    0.0000 H   0  0  0  0  0  0  0  0  0  0  0  0
   -9.4335   -7.3986    0.0000 H   0  0  0  0  0  0  0  0  0  0  0  0
   -9.8789   -7.0193    0.0000 H   0  0  0  0  0  0  0  0  0  0  0  0
   -8.4329   -4.4483    0.0000 H   0  0  0  0  0  0  0  0  0  0  0  0
  -10.0690   -4.9065    0.0000 H   0  0  0  0  0  0  0  0  0  0  0  0
  1  2  1  0
  1 66  1  0
  1 67  1  0
  1 68  1  0
  2  3  1  0
  2 41  1  0
  2 69  1  1
  3  4  1  0
  3 70  1  0
  3 71  1  0
  4  5  1  0
  4 72  1  0
  4 73  1  0
  5  6  1  0
  5 42  1  0
  5 74  1  1
  6  7  1  0
  6 75  1  0
  6 76  1  0
  7  8  1  0
  7 64  1  0
  7 77  1  1
  8  9  2  0
  8 63  1  0
  9 10  1  0
  9 78  1  0
 10 11  2  0
 10 79  1  0
 11 12  1  0
 11 80  1  0
 12 13  2  0
 12 81  1  0
 13 14  1  0
 13 82  1  0
 14 15  1  0
 14 83  1  6
 14 62  1  0
 15 16  1  0
 15 84  1  0
 15 85  1  0
 16 17  1  0
 16 86  1  6
 16 61  1  0
 17 18  2  0
 17 19  1  0
 19 20  1  0
 19 59  1  0
 19 87  1  1
 20 21  1  0
 20 58  1  0
 20 88  1  1
 21 22  2  0
 21 57  1  0
 22 23  1  0
 22 89  1  0
 23 24  1  0
 23 90  1  6
 23 56  1  0
 24 25  2  0
 24 26  1  0
 26 27  1  0
 26 91  1  0
 26 92  1  0
 27 28  1  0
 27 44  1  0
 27 93  1  6
 28 29  1  0
 29 30  2  0
 29 31  1  0
 31 32  1  0
 31 36  1  0
 31 94  1  1
 32 33  1  0
 32 95  1  0
 32 96  1  0
 33 34  1  0
 33 97  1  0
 33 98  1  0
 34 35  1  0
 34 99  1  0
 34100  1  0
 35 36  1  0
 35101  1  0
 35102  1  0
 36 37  1  0
 37 38  2  0
 37 39  1  0
 39 40  2  0
 39 41  1  0
 41 42  1  0
 41 43  1  6
 43103  1  0
 44 46  1  0
 44104  1  1
 44 45  1  0
 45105  1  0
 45106  1  0
 45107  1  0
 46 47  1  0
 46108  1  0
 46109  1  0
 47 48  1  0
 47 52  1  0
 47110  1  1
 48 49  1  0
 48111  1  0
 48112  1  0
 49 50  1  0
 49113  1  0
 49114  1  0
 50 51  1  0
 50115  1  6
 50 55  1  0
 51 52  1  0
 51 53  1  0
 51116  1  1
 52117  1  0
 52118  1  0
 53 54  1  0
 54119  1  0
 54120  1  0
 54121  1  0
 55122  1  0
 56123  1  0
 56124  1  0
 56125  1  0
 57126  1  0
 57127  1  0
 57128  1  0
 58129  1  0
 59 60  1  0
 60130  1  0
 60131  1  0
 60132  1  0
 61133  1  0
 61134  1  0
 61135  1  0
 62136  1  0
 62137  1  0
 62138  1  0
 63139  1  0
 63140  1  0
 63141  1  0
 64 65  1  0
 65142  1  0
 65143  1  0
 65144  1  0
M  END
$$$$

     RDKit          2D

 77 79  0  0  0  0  0  0  0  0999 V2000
    5.2844   -6.1780    0.0000 C   0  0  0  0  0  0  0  0  0  0  0  0
    3.7886   -6.0655    0.0000 C   0  0  0  0  0  0  0  0  0  0  0  0
    2.2928   -5.9530    0.0000 N   0  0  0  0  0  0  0  0  0  0  0  0
    1.6424   -4.6013    0.0000 C   0  0  0  0  0  0  0  0  0  0  0  0
    0.1466   -4.4888    0.0000 C   0  0  0  0  0  0  0  0  0  0  0  0
   -0.5039   -3.1372    0.0000 C   0  0  0  0  0  0  0  0  0  0  0  0
    0.3415   -1.8981    0.0000 C   0  0  0  0  0  0  0  0  0  0  0  0
   -0.3090   -0.5464    0.0000 C   0  0  0  0  0  0  0  0  0  0  0  0
   -1.8048   -0.4339    0.0000 C   0  0  0  0  0  0  0  0  0  0  0  0
   -2.4552    0.9177    0.0000 C   0  0  0  0  0  0  0  0  0  0  0  0
   -3.9510    1.0302    0.0000 C   0  0  0  0  0  0  0  0  0  0  0  0
   -4.7963   -0.2089    0.0000 C   0  0  0  0  0  0  0  0  0  0  0  0
   -4.1459   -1.5605    0.0000 C   0  0  0  0  0  0  0  0  0  0  0  0
   -2.6501   -1.6731    0.0000 C   0  0  0  0  0  0  0  0  0  0  0  0
   -6.2921   -0.0964    0.0000 N   0  0  0  0  0  0  0  0  0  0  0  0
   -7.1374   -1.3355    0.0000 C   0  0  0  0  0  0  0  0  0  0  0  0
   -7.9827   -2.5747    0.0000 C   0  0  0  0  0  0  0  0  0  0  0  0
   -6.9426    1.2552    0.0000 C   0  0  0  0  0  0  0  0  0  0  0  0
   -7.5930    2.6068    0.0000 C   0  0  0  0  0  0  0  0  0  0  0  0
    0.5363    0.6927    0.0000 C   0  0  0  0  0  0  0  0  0  0  0  0
    2.0321    0.5802    0.0000 C   0  0  0  0  0  0  0  0  0  0  0  0
    2.8774    1.8193    0.0000 C   0  0  0  0  0  0  0  0  0  0  0  0
    2.2270    3.1709    0.0000 C   0  0  0  0  0  0  0  0  0  0  0  0
    0.7312    3.2835    0.0000 C   0  0  0  0  0  0  0  0  0  0  0  0
   -0.1141    2.0443    0.0000 C   0  0  0  0  0  0  0  0  0  0  0  0
    3.0723    4.4101    0.0000 N   0  0  0  0  0  0  0  0  0  0  0  0
    2.4218    5.7617    0.0000 C   0  0  0  0  0  0  0  0  0  0  0  0
    1.7714    7.1133    0.0000 C   0  0  0  0  0  0  0  0  0  0  0  0
    4.5681    4.2976    0.0000 C   0  0  0  0  0  0  0  0  0  0  0  0
    6.0638    4.1851    0.0000 C   0  0  0  0  0  0  0  0  0  0  0  0
    1.8372   -2.0106    0.0000 C   0  0  0  0  0  0  0  0  0  0  0  0
    2.6825   -0.7714    0.0000 C   0  0  0  0  0  0  0  0  0  0  0  0
    4.1783   -0.8839    0.0000 C   0  0  0  0  0  0  0  0  0  0  0  0
    4.8288   -2.2356    0.0000 C   0  0  0  0  0  0  0  0  0  0  0  0
    3.9835   -3.4747    0.0000 C   0  0  0  0  0  0  0  0  0  0  0  0
    2.4877   -3.3622    0.0000 C   0  0  0  0  0  0  0  0  0  0  0  0
    0.0000    9.4650    0.0000 Cl  0  0  0  0  0  0  0  0  0  0  0  0
    5.1719   -7.6737    0.0000 H   0  0  0  0  0  0  0  0  0  0  0  0
    5.5784   -4.7071    0.0000 H   0  0  0  0  0  0  0  0  0  0  0  0
    6.7801   -6.2905    0.0000 H   0  0  0  0  0  0  0  0  0  0  0  0
    3.6761   -7.5612    0.0000 H   0  0  0  0  0  0  0  0  0  0  0  0
    4.0826   -4.5946    0.0000 H   0  0  0  0  0  0  0  0  0  0  0  0
    1.4475   -7.1921    0.0000 H   0  0  0  0  0  0  0  0  0  0  0  0
   -0.6987   -5.7279    0.0000 H   0  0  0  0  0  0  0  0  0  0  0  0
   -1.4869   -3.1836    0.0000 H   0  0  0  0  0  0  0  0  0  0  0  0
   -1.7673    2.2506    0.0000 H   0  0  0  0  0  0  0  0  0  0  0  0
   -4.6015    2.3818    0.0000 H   0  0  0  0  0  0  0  0  0  0  0  0
   -4.9912   -2.7997    0.0000 H   0  0  0  0  0  0  0  0  0  0  0  0
   -2.3346   -2.6053    0.0000 H   0  0  0  0  0  0  0  0  0  0  0  0
   -8.3765   -0.4902    0.0000 H   0  0  0  0  0  0  0  0  0  0  0  0
   -5.8983   -2.1809    0.0000 H   0  0  0  0  0  0  0  0  0  0  0  0
   -9.2219   -1.7293    0.0000 H   0  0  0  0  0  0  0  0  0  0  0  0
   -6.7436   -3.4200    0.0000 H   0  0  0  0  0  0  0  0  0  0  0  0
   -8.8281   -3.8138    0.0000 H   0  0  0  0  0  0  0  0  0  0  0  0
   -8.2942    0.6048    0.0000 H   0  0  0  0  0  0  0  0  0  0  0  0
   -5.5909    1.9057    0.0000 H   0  0  0  0  0  0  0  0  0  0  0  0
   -6.2414    3.2573    0.0000 H   0  0  0  0  0  0  0  0  0  0  0  0
   -8.9446    1.9564    0.0000 H   0  0  0  0  0  0  0  0  0  0  0  0
   -8.2435    3.9585    0.0000 H   0  0  0  0  0  0  0  0  0  0  0  0
    2.5413   -0.0331    0.0000 H   0  0  0  0  0  0  0  0  0  0  0  0
    4.3732    1.7068    0.0000 H   0  0  0  0  0  0  0  0  0  0  0  0
    0.0807    4.6351    0.0000 H   0  0  0  0  0  0  0  0  0  0  0  0
   -1.5850    2.3383    0.0000 H   0  0  0  0  0  0  0  0  0  0  0  0
    3.7735    6.4122    0.0000 H   0  0  0  0  0  0  0  0  0  0  0  0
    1.0702    5.1113    0.0000 H   0  0  0  0  0  0  0  0  0  0  0  0
    3.1230    7.7638    0.0000 H   0  0  0  0  0  0  0  0  0  0  0  0
    0.4197    6.4629    0.0000 H   0  0  0  0  0  0  0  0  0  0  0  0
    1.1209    8.4650    0.0000 H   0  0  0  0  0  0  0  0  0  0  0  0
    4.6806    5.7933    0.0000 H   0  0  0  0  0  0  0  0  0  0  0  0
    4.4555    2.8018    0.0000 H   0  0  0  0  0  0  0  0  0  0  0  0
    5.9513    2.6893    0.0000 H   0  0  0  0  0  0  0  0  0  0  0  0
    6.1763    5.6808    0.0000 H   0  0  0  0  0  0  0  0  0  0  0  0
    7.5596    4.0726    0.0000 H   0  0  0  0  0  0  0  0  0  0  0  0
    2.3785    0.6974    0.0000 H   0  0  0  0  0  0  0  0  0  0  0  0
    5.0236    0.3552    0.0000 H   0  0  0  0  0  0  0  0  0  0  0  0
    6.3246   -2.3481    0.0000 H   0  0  0  0  0  0  0  0  0  0  0  0
    4.9416   -4.6288    0.0000 H   0  0  0  0  0  0  0  0  0  0  0  0
  1  2  1  0
  1 38  1  0
  1 39  1  0
  1 40  1  0
  2  3  1  0
  2 41  1  0
  2 42  1  0
  3  4  2  0
  3 43  1  0
  4  5  1  0
  4 36  1  0
  5  6  2  0
  5 44  1  0
  6  7  1  0
  6 45  1  0
  7  8  2  0
  7 31  1  0
  8  9  1  0
  8 20  1  0
  9 10  2  0
  9 14  1  0
 10 11  1  0
 10 46  1  0
 11 12  2  0
 11 47  1  0
 12 13  1  0
 12 15  1  0
 13 14  2  0
 13 48  1  0
 14 49  1  0
 15 16  1  0
 15 18  1  0
 16 17  1  0
 16 50  1  0
 16 51  1  0
 17 52  1  0
 17 53  1  0
 17 54  1  0
 18 19  1  0
 18 55  1  0
 18 56  1  0
 19 57  1  0
 19 58  1  0
 19 59  1  0
 20 21  2  0
 20 25  1  0
 21 22  1  0
 21 60  1  0
 22 23  2  0
 22 61  1  0
 23 24  1  0
 23 26  1  0
 24 25  2  0
 24 62  1  0
 25 63  1  0
 26 27  1  0
 26 29  1  0
 27 28  1  0
 27 64  1  0
 27 65  1  0
 28 66  1  0
 28 67  1  0
 28 68  1  0
 29 30  1  0
 29 69  1  0
 29 70  1  0
 30 71  1  0
 30 72  1  0
 30 73  1  0
 31 32  1  0
 31 36  2  0
 32 33  2  0
 32 74  1  0
 33 34  1  0
 33 75  1  0
 34 35  2  0
 34 76  1  0
 35 36  1  0
 35 77  1  0
M  CHG  2   3   1  37  -1
M  END
$$$$

     RDKit          2D

 39 41  0  0  0  0  0  0  0  0999 V2000
   -4.5610    1.2039    0.0000 C   0  0  0  0  0  0  0  0  0  0  0  0
   -5.9886    0.7436    0.0000 C   0  0  0  0  0  0  0  0  0  0  0  0
   -6.3038   -0.7230    0.0000 C   0  0  0  0  0  0  0  0  0  0  0  0
   -5.1913   -1.7291    0.0000 C   0  0  0  0  0  0  0  0  0  0  0  0
   -3.7637   -1.2688    0.0000 C   0  0  0  0  0  0  0  0  0  0  0  0
   -3.4485    0.1977    0.0000 C   0  0  0  0  0  0  0  0  0  0  0  0
   -2.0209    0.6581    0.0000 C   0  0  0  0  0  0  0  0  0  0  0  0
   -0.5933    1.1184    0.0000 O   0  0  0  0  0  0  0  0  0  0  0  0
    0.5192    0.1123    0.0000 C   0  0  0  0  0  0  0  0  0  0  0  0
    1.6316   -0.8939    0.0000 C   0  0  0  0  0  0  0  0  0  0  0  0
    2.7441   -1.9001    0.0000 N   0  0  0  0  0  0  0  0  0  0  0  0
    2.5840   -3.3915    0.0000 C   0  0  0  0  0  0  0  0  0  0  0  0
    3.9530   -4.0047    0.0000 C   0  0  0  0  0  0  0  0  0  0  0  0
    4.9591   -2.8922    0.0000 N   0  0  0  0  0  0  0  0  0  0  0  0
    4.2120   -1.5915    0.0000 C   0  0  0  0  0  0  0  0  0  0  0  0
    1.5253    1.2247    0.0000 C   0  0  0  0  0  0  0  0  0  0  0  0
    2.9919    0.9096    0.0000 C   0  0  0  0  0  0  0  0  0  0  0  0
    3.9980    2.0221    0.0000 C   0  0  0  0  0  0  0  0  0  0  0  0
    3.5377    3.4497    0.0000 C   0  0  0  0  0  0  0  0  0  0  0  0
    2.0712    3.7648    0.0000 C   0  0  0  0  0  0  0  0  0  0  0  0
    1.0650    2.6524    0.0000 C   0  0  0  0  0  0  0  0  0  0  0  0
    4.5439    4.5622    0.0000 Cl  0  0  0  0  0  0  0  0  0  0  0  0
    3.2637    0.0666    0.0000 Cl  0  0  0  0  0  0  0  0  0  0  0  0
   -7.7314   -1.1833    0.0000 Cl  0  0  0  0  0  0  0  0  0  0  0  0
   -4.2459    2.6704    0.0000 H   0  0  0  0  0  0  0  0  0  0  0  0
   -7.1011    1.7497    0.0000 H   0  0  0  0  0  0  0  0  0  0  0  0
   -5.5064   -3.1957    0.0000 H   0  0  0  0  0  0  0  0  0  0  0  0
   -2.6512   -2.2750    0.0000 H   0  0  0  0  0  0  0  0  0  0  0  0
   -2.4813    2.0857    0.0000 H   0  0  0  0  0  0  0  0  0  0  0  0
   -1.5606   -0.7695    0.0000 H   0  0  0  0  0  0  0  0  0  0  0  0
   -0.4870   -1.0002    0.0000 H   0  0  0  0  0  0  0  0  0  0  0  0
    2.3671   -0.4003    0.0000 H   0  0  0  0  0  0  0  0  0  0  0  0
    0.6255   -2.0064    0.0000 H   0  0  0  0  0  0  0  0  0  0  0  0
    1.2833   -4.1386    0.0000 H   0  0  0  0  0  0  0  0  0  0  0  0
    4.2616   -5.4726    0.0000 H   0  0  0  0  0  0  0  0  0  0  0  0
    4.8252   -0.2225    0.0000 H   0  0  0  0  0  0  0  0  0  0  0  0
    5.4646    1.7070    0.0000 H   0  0  0  0  0  0  0  0  0  0  0  0
    1.6108    5.1924    0.0000 H   0  0  0  0  0  0  0  0  0  0  0  0
   -0.4015    2.9675    0.0000 H   0  0  0  0  0  0  0  0  0  0  0  0
  1  2  2  0
  1  6  1  0
  1 25  1  0
  2  3  1  0
  2 26  1  0
  3  4  2  0
  3 24  1  0
  4  5  1  0
  4 27  1  0
  5  6  2  0
  5 28  1  0
  6  7  1  0
  7  8  1  0
  7 29  1  0
  7 30  1  0
  8  9  1  0
  9 10  1  0
  9 16  1  0
  9 31  1  1
 10 11  1  0
 10 32  1  0
 10 33  1  0
 11 12  1  0
 11 15  1  0
 12 13  2  0
 12 34  1  0
 13 14  1  0
 13 35  1  0
 14 15  2  0
 15 36  1  0
 16 17  2  0
 16 21  1  0
 17 18  1  0
 17 23  1  0
 18 19  2  0
 18 37  1  0
 19 20  1  0
 19 22  1  0
 20 21  2  0
 20 38  1  0
 21 39  1  0
M  END
$$$$

     RDKit          2D

 41 43  0  0  0  0  0  0  0  0999 V2000
   -5.5536   -1.2970    0.0000 C   0  0  0  0  0  0  0  0  0  0  0  0
   -4.9352    0.0696    0.0000 C   0  0  0  0  0  0  0  0  0  0  0  0
   -3.4425    0.2173    0.0000 C   0  0  0  0  0  0  0  0  0  0  0  0
   -2.5682   -1.0015    0.0000 C   0  0  0  0  0  0  0  0  0  0  0  0
   -3.1866   -2.3681    0.0000 C   0  0  0  0  0  0  0  0  0  0  0  0
   -4.6793   -2.5159    0.0000 C   0  0  0  0  0  0  0  0  0  0  0  0
   -1.0755   -0.8537    0.0000 C   0  0  0  0  0  0  0  0  0  0  0  0
    0.4172   -0.7060    0.0000 C   0  0  0  0  0  0  0  0  0  0  0  0
    1.9099   -0.5582    0.0000 C   0  0  0  0  0  0  0  0  0  0  0  0
    3.4026   -0.4105    0.0000 C   0  0  0  0  0  0  0  0  0  0  0  0
    4.2769   -1.6293    0.0000 C   0  0  0  0  0  0  0  0  0  0  0  0
    5.7696   -1.4815    0.0000 C   0  0  0  0  0  0  0  0  0  0  0  0
    6.3880   -0.1149    0.0000 C   0  0  0  0  0  0  0  0  0  0  0  0
    5.5137    1.1039    0.0000 C   0  0  0  0  0  0  0  0  0  0  0  0
    4.0210    0.9561    0.0000 C   0  0  0  0  0  0  0  0  0  0  0  0
    7.8807    0.0328    0.0000 Cl  0  0  0  0  0  0  0  0  0  0  0  0
   -1.2233    0.6390    0.0000 C   0  0  0  0  0  0  0  0  0  0  0  0
   -1.3710    2.1317    0.0000 N   0  0  0  0  0  0  0  0  0  0  0  0
   -0.2502    3.1286    0.0000 C   0  0  0  0  0  0  0  0  0  0  0  0
   -0.8520    4.5026    0.0000 N   0  0  0  0  0  0  0  0  0  0  0  0
   -2.3447    4.3548    0.0000 C   0  0  0  0  0  0  0  0  0  0  0  0
   -2.6655    2.8895    0.0000 N   0  0  0  0  0  0  0  0  0  0  0  0
   -0.9277   -2.3464    0.0000 C   0  0  0  0  0  0  0  0  0  0  0  0
   -0.7800   -3.8391    0.0000 N   0  0  0  0  0  0  0  0  0  0  0  0
   -7.0463   -1.4448    0.0000 H   0  0  0  0  0  0  0  0  0  0  0  0
   -5.8095    1.2884    0.0000 H   0  0  0  0  0  0  0  0  0  0  0  0
   -3.0774    1.0243    0.0000 H   0  0  0  0  0  0  0  0  0  0  0  0
   -2.3123   -3.5869    0.0000 H   0  0  0  0  0  0  0  0  0  0  0  0
   -5.2977   -3.8825    0.0000 H   0  0  0  0  0  0  0  0  0  0  0  0
    0.4380    0.1795    0.0000 H   0  0  0  0  0  0  0  0  0  0  0  0
    0.5650   -2.1987    0.0000 H   0  0  0  0  0  0  0  0  0  0  0  0
    1.7622    0.9345    0.0000 H   0  0  0  0  0  0  0  0  0  0  0  0
    2.0577   -2.0509    0.0000 H   0  0  0  0  0  0  0  0  0  0  0  0
    3.6585   -2.9959    0.0000 H   0  0  0  0  0  0  0  0  0  0  0  0
    6.6440   -2.7004    0.0000 H   0  0  0  0  0  0  0  0  0  0  0  0
    6.1321    2.4705    0.0000 H   0  0  0  0  0  0  0  0  0  0  0  0
    3.1467    2.1750    0.0000 H   0  0  0  0  0  0  0  0  0  0  0  0
   -0.3590    0.8330    0.0000 H   0  0  0  0  0  0  0  0  0  0  0  0
   -2.0996    0.7676    0.0000 H   0  0  0  0  0  0  0  0  0  0  0  0
    1.2151    2.8079    0.0000 H   0  0  0  0  0  0  0  0  0  0  0  0
   -3.3417    5.4756    0.0000 H   0  0  0  0  0  0  0  0  0  0  0  0
  1  2  2  0
  1  6  1  0
  1 25  1  0
  2  3  1  0
  2 26  1  0
  3  4  2  0
  3 27  1  0
  4  5  1  0
  4  7  1  0
  5  6  2  0
  5 28  1  0
  6 29  1  0
  7  8  1  0
  7 17  1  0
  7 23  1  1
  8  9  1  0
  8 30  1  0
  8 31  1  0
  9 10  1  0
  9 32  1  0
  9 33  1  0
 10 11  2  0
 10 15  1  0
 11 12  1  0
 11 34  1  0
 12 13  2  0
 12 35  1  0
 13 14  1  0
 13 16  1  0
 14 15  2  0
 14 36  1  0
 15 37  1  0
 17 18  1  0
 17 38  1  0
 17 39  1  0
 18 19  1  0
 18 22  1  0
 19 20  2  0
 19 40  1  0
 20 21  1  0
 21 22  2  0
 21 41  1  0
 23 24  3  0
M  END
$$$$

     RDKit          2D

 78 82  0  0  1  0  0  0  0  0999 V2000
   -1.2409    6.0050    0.0000 C   0  0  0  0  0  0  0  0  0  0  0  0
   -2.0258    4.7267    0.0000 C   0  0  0  0  0  0  0  0  0  0  0  0
   -2.8106    3.4484    0.0000 C   0  0  0  0  0  0  0  0  0  0  0  0
   -0.7475    3.9418    0.0000 C   0  0  0  0  0  0  0  0  0  0  0  0
    0.5308    3.1570    0.0000 C   0  0  0  0  0  0  0  0  0  0  0  0
    1.8090    2.3721    0.0000 C   0  0  0  0  0  0  0  0  0  0  0  0
    3.0873    1.5873    0.0000 C   0  0  0  0  0  0  0  0  0  0  0  0
    4.3656    0.8024    0.0000 C   0  0  0  0  0  0  0  0  0  0  0  0
    5.6439    0.0176    0.0000 C   0  0  0  0  0  0  0  0  0  0  0  0
    5.6033   -1.4819    0.0000 O   0  0  0  0  0  0  0  0  0  0  0  0
    6.9627    0.7321    0.0000 O   0  0  0  0  0  0  0  0  0  0  0  0
    8.2410   -0.0527    0.0000 C   0  0  0  0  0  0  0  0  0  0  0  0
    2.3025    0.3090    0.0000 C   0  0  0  0  0  0  0  0  0  0  0  0
    3.1725   -0.9129    0.0000 O   0  0  0  0  0  0  0  0  0  0  0  0
    0.8030    0.3496    0.0000 O   0  0  0  0  0  0  0  0  0  0  0  0
    0.0182   -0.9287    0.0000 C   0  0  0  0  0  0  0  0  0  0  0  0
   -1.0153   -2.0159    0.0000 C   0  0  0  0  0  0  0  0  0  0  0  0
   -2.4920   -1.7523    0.0000 C   0  0  0  0  0  0  0  0  0  0  0  0
   -2.7861   -0.2814    0.0000 C   0  0  0  0  0  0  0  0  0  0  0  0
   -4.2070    0.1993    0.0000 C   0  0  0  0  0  0  0  0  0  0  0  0
   -5.3337   -0.7908    0.0000 C   0  0  0  0  0  0  0  0  0  0  0  0
   -5.0396   -2.2617    0.0000 C   0  0  0  0  0  0  0  0  0  0  0  0
   -3.6187   -2.7424    0.0000 C   0  0  0  0  0  0  0  0  0  0  0  0
   -3.5471   -4.2407    0.0000 C   0  0  0  0  0  0  0  0  0  0  0  0
   -2.3311   -5.1189    0.0000 C   0  0  0  0  0  0  0  0  0  0  0  0
   -0.8863   -4.7157    0.0000 N   0  0  0  0  0  0  0  0  0  0  0  0
   -0.3007   -3.3347    0.0000 C   0  0  0  0  0  0  0  0  0  0  0  0
   -0.8214   -3.5213    0.0000 C   0  0  0  0  0  0  0  0  0  0  0  0
   -0.4018   -4.1065    0.0000 C   0  0  0  0  0  0  0  0  0  0  0  0
   -1.1141   -4.2118    0.0000 C   0  0  0  0  0  0  0  0  0  0  0  0
    1.1744   -3.0627    0.0000 C   0  0  0  0  0  0  0  0  0  0  0  0
    1.3715   -1.5757    0.0000 C   0  0  0  0  0  0  0  0  0  0  0  0
    2.6903   -0.8611    0.0000 O   0  0  0  0  0  0  0  0  0  0  0  0
    2.7309    0.6384    0.0000 C   0  0  0  0  0  0  0  0  0  0  0  0
   -6.6236   -0.0252    0.0000 O   0  0  0  0  0  0  0  0  0  0  0  0
   -6.2940    1.4382    0.0000 C   0  0  0  0  0  0  0  0  0  0  0  0
   -4.8005    1.5769    0.0000 O   0  0  0  0  0  0  0  0  0  0  0  0
    3.8722    2.8655    0.0000 O   0  0  0  0  0  0  0  0  0  0  0  0
   -3.3041    5.5116    0.0000 O   0  0  0  0  0  0  0  0  0  0  0  0
   -2.4140    6.9398    0.0000 H   0  0  0  0  0  0  0  0  0  0  0  0
    0.1235    5.3818    0.0000 H   0  0  0  0  0  0  0  0  0  0  0  0
   -0.4561    7.2833    0.0000 H   0  0  0  0  0  0  0  0  0  0  0  0
   -4.0889    4.2333    0.0000 H   0  0  0  0  0  0  0  0  0  0  0  0
   -1.6376    2.5136    0.0000 H   0  0  0  0  0  0  0  0  0  0  0  0
   -3.5955    2.1701    0.0000 H   0  0  0  0  0  0  0  0  0  0  0  0
   -1.3707    2.5774    0.0000 H   0  0  0  0  0  0  0  0  0  0  0  0
    0.1873    5.1149    0.0000 H   0  0  0  0  0  0  0  0  0  0  0  0
    1.3156    4.4353    0.0000 H   0  0  0  0  0  0  0  0  0  0  0  0
   -0.2541    1.8787    0.0000 H   0  0  0  0  0  0  0  0  0  0  0  0
    2.4322    3.7365    0.0000 H   0  0  0  0  0  0  0  0  0  0  0  0
    0.6182    1.4601    0.0000 H   0  0  0  0  0  0  0  0  0  0  0  0
    3.7424   -0.5620    0.0000 H   0  0  0  0  0  0  0  0  0  0  0  0
    5.1505    2.0807    0.0000 H   0  0  0  0  0  0  0  0  0  0  0  0
    9.0259    1.2256    0.0000 H   0  0  0  0  0  0  0  0  0  0  0  0
    7.4562   -1.3310    0.0000 H   0  0  0  0  0  0  0  0  0  0  0  0
    9.5193   -0.8376    0.0000 H   0  0  0  0  0  0  0  0  0  0  0  0
   -0.9145    0.2460    0.0000 H   0  0  0  0  0  0  0  0  0  0  0  0
   -1.6532   -0.6583    0.0000 H   0  0  0  0  0  0  0  0  0  0  0  0
   -1.7884    0.8387    0.0000 H   0  0  0  0  0  0  0  0  0  0  0  0
   -6.1664   -3.2519    0.0000 H   0  0  0  0  0  0  0  0  0  0  0  0
   -5.0238   -3.9771    0.0000 H   0  0  0  0  0  0  0  0  0  0  0  0
   -4.2967   -5.5400    0.0000 H   0  0  0  0  0  0  0  0  0  0  0  0
   -3.3288   -6.2390    0.0000 H   0  0  0  0  0  0  0  0  0  0  0  0
   -1.7826   -6.5150    0.0000 H   0  0  0  0  0  0  0  0  0  0  0  0
    1.5306   -2.0032    0.0000 H   0  0  0  0  0  0  0  0  0  0  0  0
    2.6824   -3.2815    0.0000 H   0  0  0  0  0  0  0  0  0  0  0  0
    2.9987   -4.6139    0.0000 H   0  0  0  0  0  0  0  0  0  0  0  0
    2.1660   -6.2856    0.0000 H   0  0  0  0  0  0  0  0  0  0  0  0
    1.1493   -6.8970    0.0000 H   0  0  0  0  0  0  0  0  0  0  0  0
   -0.7176   -6.8488    0.0000 H   0  0  0  0  0  0  0  0  0  0  0  0
    2.3794   -3.9559    0.0000 H   0  0  0  0  0  0  0  0  0  0  0  0
    4.1760    0.2362    0.0000 H   0  0  0  0  0  0  0  0  0  0  0  0
    1.2476    0.8614    0.0000 H   0  0  0  0  0  0  0  0  0  0  0  0
    3.1331    2.0835    0.0000 H   0  0  0  0  0  0  0  0  0  0  0  0
   -7.7838    1.6130    0.0000 H   0  0  0  0  0  0  0  0  0  0  0  0
   -6.2759    2.9381    0.0000 H   0  0  0  0  0  0  0  0  0  0  0  0
    3.3237    4.2617    0.0000 H   0  0  0  0  0  0  0  0  0  0  0  0
   -3.4466    7.0048    0.0000 H   0  0  0  0  0  0  0  0  0  0  0  0
  1  2  1  0
  1 40  1  0
  1 41  1  0
  1 42  1  0
  2  3  1  0
  2  4  1  0
  2 39  1  0
  3 43  1  0
  3 44  1  0
  3 45  1  0
  4  5  1  0
  4 46  1  0
  4 47  1  0
  5  6  1  0
  5 48  1  0
  5 49  1  0
  6  7  1  0
  6 50  1  0
  6 51  1  0
  7  8  1  0
  7 13  1  0
  7 38  1  6
  8  9  1  0
  8 52  1  0
  8 53  1  0
  9 10  2  0
  9 11  1  0
 11 12  1  0
 12 54  1  0
 12 55  1  0
 12 56  1  0
 13 14  2  0
 13 15  1  0
 16 17  1  0
 16 32  1  0
 16 57  1  1
 16 15  1  0
 17 18  1  0
 17 27  1  0
 17 58  1  6
 18 19  1  0
 18 23  2  0
 19 20  2  0
 19 59  1  0
 20 21  1  0
 20 37  1  0
 21 22  2  0
 21 35  1  0
 22 23  1  0
 22 60  1  0
 23 24  1  0
 24 25  1  0
 24 61  1  0
 24 62  1  0
 25 26  1  0
 25 63  1  0
 25 64  1  0
 26 27  1  0
 26 30  1  0
 27 28  1  1
 27 31  1  0
 28 29  1  0
 28 65  1  0
 28 66  1  0
 29 30  1  0
 29 67  1  0
 29 68  1  0
 30 69  1  0
 30 70  1  0
 31 32  2  0
 31 71  1  0
 32 33  1  0
 33 34  1  0
 34 72  1  0
 34 73  1  0
 34 74  1  0
 35 36  1  0
 36 37  1  0
 36 75  1  0
 36 76  1  0
 38 77  1  0
 39 78  1  0
M  END
$$$$

     RDKit          2D

122129  0  0  1  0  0  0  0  0999 V2000
   11.0060   -4.9879    0.0000 C   0  0  0  0  0  0  0  0  0  0  0  0
    9.9682   -3.9049    0.0000 C   0  0  0  0  0  0  0  0  0  0  0  0
   11.2150   -3.0709    0.0000 C   0  0  0  0  0  0  0  0  0  0  0  0
   11.1162   -1.5742    0.0000 C   0  0  0  0  0  0  0  0  0  0  0  0
    9.7705   -0.9114    0.0000 C   0  0  0  0  0  0  0  0  0  0  0  0
    8.5237   -1.7454    0.0000 C   0  0  0  0  0  0  0  0  0  0  0  0
    8.6226   -3.2421    0.0000 O   0  0  0  0  0  0  0  0  0  0  0  0
    7.9189   -0.3727    0.0000 O   0  0  0  0  0  0  0  0  0  0  0  0
    6.4278   -0.2101    0.0000 C   0  0  0  0  0  0  0  0  0  0  0  0
    4.9709   -0.5674    0.0000 C   0  0  0  0  0  0  0  0  0  0  0  0
    3.9331    0.5156    0.0000 O   0  0  0  0  0  0  0  0  0  0  0  0
    4.3522    1.9559    0.0000 C   0  0  0  0  0  0  0  0  0  0  0  0
    5.8090    2.3132    0.0000 C   0  0  0  0  0  0  0  0  0  0  0  0
    6.8468    1.2301    0.0000 C   0  0  0  0  0  0  0  0  0  0  0  0
    7.7332    2.4402    0.0000 O   0  0  0  0  0  0  0  0  0  0  0  0
    4.2533    3.4527    0.0000 O   0  0  0  0  0  0  0  0  0  0  0  0
    2.9077    4.1154    0.0000 C   0  0  0  0  0  0  0  0  0  0  0  0
    1.8699    5.1985    0.0000 C   0  0  0  0  0  0  0  0  0  0  0  0
    0.4131    4.8412    0.0000 O   0  0  0  0  0  0  0  0  0  0  0  0
   -0.0060    3.4009    0.0000 C   0  0  0  0  0  0  0  0  0  0  0  0
    1.0318    2.3179    0.0000 C   0  0  0  0  0  0  0  0  0  0  0  0
    2.4887    2.6752    0.0000 C   0  0  0  0  0  0  0  0  0  0  0  0
    2.5875    1.1784    0.0000 O   0  0  0  0  0  0  0  0  0  0  0  0
   -0.8923    2.1908    0.0000 O   0  0  0  0  0  0  0  0  0  0  0  0
   -2.3835    2.3534    0.0000 C   0  0  0  0  0  0  0  0  0  0  0  0
   -3.7292    3.0162    0.0000 C   0  0  0  0  0  0  0  0  0  0  0  0
   -4.9759    2.1822    0.0000 C   0  0  0  0  0  0  0  0  0  0  0  0
   -4.8771    0.6855    0.0000 C   0  0  0  0  0  0  0  0  0  0  0  0
   -3.5315    0.0227    0.0000 C   0  0  0  0  0  0  0  0  0  0  0  0
   -2.2847    0.8567    0.0000 C   0  0  0  0  0  0  0  0  0  0  0  0
   -3.4326   -1.4740    0.0000 C   0  0  0  0  0  0  0  0  0  0  0  0
   -4.6794   -2.3080    0.0000 C   0  0  0  0  0  0  0  0  0  0  0  0
   -6.0251   -1.6452    0.0000 C   0  0  0  0  0  0  0  0  0  0  0  0
   -6.1239   -0.1485    0.0000 C   0  0  0  0  0  0  0  0  0  0  0  0
   -7.4695    0.5143    0.0000 C   0  0  0  0  0  0  0  0  0  0  0  0
   -8.7163   -0.3197    0.0000 C   0  0  0  0  0  0  0  0  0  0  0  0
   -8.6175   -1.8164    0.0000 C   0  0  0  0  0  0  0  0  0  0  0  0
   -7.2718   -2.4792    0.0000 C   0  0  0  0  0  0  0  0  0  0  0  0
   -7.4864   -3.9638    0.0000 C   0  0  0  0  0  0  0  0  0  0  0  0
   -8.9646   -4.2186    0.0000 C   0  0  0  0  0  0  0  0  0  0  0  0
   -9.6636   -2.8914    0.0000 C   0  0  0  0  0  0  0  0  0  0  0  0
  -10.6234   -1.7386    0.0000 C   0  0  0  0  0  0  0  0  0  0  0  0
  -12.1201   -1.8375    0.0000 C   0  0  0  0  0  0  0  0  0  0  0  0
  -12.6766   -0.4445    0.0000 C   0  0  0  0  0  0  0  0  0  0  0  0
  -14.1307   -0.0760    0.0000 O   0  0  0  0  0  0  0  0  0  0  0  0
  -11.5238    0.5152    0.0000 O   0  0  0  0  0  0  0  0  0  0  0  0
  -10.2549   -0.2846    0.0000 C   0  0  0  0  0  0  0  0  0  0  0  0
   -7.5266   -1.0010    0.0000 O   0  0  0  0  0  0  0  0  0  0  0  0
  -10.0250   -1.2980    0.0000 C   0  0  0  0  0  0  0  0  0  0  0  0
   -9.3211    1.0530    0.0000 O   0  0  0  0  0  0  0  0  0  0  0  0
   -3.6303    1.5194    0.0000 C   0  0  0  0  0  0  0  0  0  0  0  0
    3.1167    6.0324    0.0000 C   0  0  0  0  0  0  0  0  0  0  0  0
    5.5757   -1.9401    0.0000 C   0  0  0  0  0  0  0  0  0  0  0  0
   11.5352   -0.1339    0.0000 O   0  0  0  0  0  0  0  0  0  0  0  0
   12.6718   -2.7137    0.0000 O   0  0  0  0  0  0  0  0  0  0  0  0
   13.0909   -1.2734    0.0000 C   0  0  0  0  0  0  0  0  0  0  0  0
    9.9230   -6.0257    0.0000 H   0  0  0  0  0  0  0  0  0  0  0  0
   11.6445   -4.5107    0.0000 H   0  0  0  0  0  0  0  0  0  0  0  0
   12.0438   -6.0710    0.0000 H   0  0  0  0  0  0  0  0  0  0  0  0
    9.0818   -5.1150    0.0000 H   0  0  0  0  0  0  0  0  0  0  0  0
   11.6230   -3.7558    0.0000 H   0  0  0  0  0  0  0  0  0  0  0  0
   12.6024   -1.3711    0.0000 H   0  0  0  0  0  0  0  0  0  0  0  0
   10.6569    0.2987    0.0000 H   0  0  0  0  0  0  0  0  0  0  0  0
    8.8725    0.2901    0.0000 H   0  0  0  0  0  0  0  0  0  0  0  0
    7.0669   -2.1026    0.0000 H   0  0  0  0  0  0  0  0  0  0  0  0
    6.5266   -1.7069    0.0000 H   0  0  0  0  0  0  0  0  0  0  0  0
    3.7241   -1.4014    0.0000 H   0  0  0  0  0  0  0  0  0  0  0  0
    2.8660    1.7528    0.0000 H   0  0  0  0  0  0  0  0  0  0  0  0
    7.0558    3.1471    0.0000 H   0  0  0  0  0  0  0  0  0  0  0  0
    5.2042    3.6858    0.0000 H   0  0  0  0  0  0  0  0  0  0  0  0
    8.2632    0.7363    0.0000 H   0  0  0  0  0  0  0  0  0  0  0  0
    9.2243    2.2777    0.0000 H   0  0  0  0  0  0  0  0  0  0  0  0
    3.9350    5.2085    0.0000 H   0  0  0  0  0  0  0  0  0  0  0  0
    1.2651    6.5711    0.0000 H   0  0  0  0  0  0  0  0  0  0  0  0
   -1.2608    4.2228    0.0000 H   0  0  0  0  0  0  0  0  0  0  0  0
    1.6366    0.9452    0.0000 H   0  0  0  0  0  0  0  0  0  0  0  0
   -0.1040    1.3382    0.0000 H   0  0  0  0  0  0  0  0  0  0  0  0
    3.8962    2.1566    0.0000 H   0  0  0  0  0  0  0  0  0  0  0  0
    3.7328    0.2097    0.0000 H   0  0  0  0  0  0  0  0  0  0  0  0
   -2.1432    3.8340    0.0000 H   0  0  0  0  0  0  0  0  0  0  0  0
   -4.7670    4.0992    0.0000 H   0  0  0  0  0  0  0  0  0  0  0  0
   -2.8428    4.2263    0.0000 H   0  0  0  0  0  0  0  0  0  0  0  0
   -6.4759    2.1881    0.0000 H   0  0  0  0  0  0  0  0  0  0  0  0
   -5.5807    3.5549    0.0000 H   0  0  0  0  0  0  0  0  0  0  0  0
   -2.1858   -0.6401    0.0000 H   0  0  0  0  0  0  0  0  0  0  0  0
   -0.7952    1.0337    0.0000 H   0  0  0  0  0  0  0  0  0  0  0  0
   -1.3657   -0.3289    0.0000 H   0  0  0  0  0  0  0  0  0  0  0  0
   -2.8278   -2.8467    0.0000 H   0  0  0  0  0  0  0  0  0  0  0  0
   -1.9326   -1.4799    0.0000 H   0  0  0  0  0  0  0  0  0  0  0  0
   -5.2466   -3.6966    0.0000 H   0  0  0  0  0  0  0  0  0  0  0  0
   -3.6416   -3.3911    0.0000 H   0  0  0  0  0  0  0  0  0  0  0  0
   -5.9262   -3.1420    0.0000 H   0  0  0  0  0  0  0  0  0  0  0  0
   -6.2227    1.3482    0.0000 H   0  0  0  0  0  0  0  0  0  0  0  0
   -8.3676    1.7157    0.0000 H   0  0  0  0  0  0  0  0  0  0  0  0
   -6.9023    1.9029    0.0000 H   0  0  0  0  0  0  0  0  0  0  0  0
  -10.1703    0.0490    0.0000 H   0  0  0  0  0  0  0  0  0  0  0  0
   -6.0461   -4.3829    0.0000 H   0  0  0  0  0  0  0  0  0  0  0  0
   -7.3875   -5.4605    0.0000 H   0  0  0  0  0  0  0  0  0  0  0  0
   -8.5567   -5.6620    0.0000 H   0  0  0  0  0  0  0  0  0  0  0  0
  -10.3575   -4.7751    0.0000 H   0  0  0  0  0  0  0  0  0  0  0  0
  -10.9104   -3.7254    0.0000 H   0  0  0  0  0  0  0  0  0  0  0  0
  -12.9199   -3.1065    0.0000 H   0  0  0  0  0  0  0  0  0  0  0  0
   -9.9374    1.1814    0.0000 H   0  0  0  0  0  0  0  0  0  0  0  0
   -8.7637   -0.4471    0.0000 H   0  0  0  0  0  0  0  0  0  0  0  0
   -6.6403    0.2091    0.0000 H   0  0  0  0  0  0  0  0  0  0  0  0
   -9.5065    0.1096    0.0000 H   0  0  0  0  0  0  0  0  0  0  0  0
  -10.5435   -2.7055    0.0000 H   0  0  0  0  0  0  0  0  0  0  0  0
  -11.4326   -0.7795    0.0000 H   0  0  0  0  0  0  0  0  0  0  0  0
   -8.5889    2.3621    0.0000 H   0  0  0  0  0  0  0  0  0  0  0  0
   -2.3085    0.8102    0.0000 H   0  0  0  0  0  0  0  0  0  0  0  0
   -3.7812    3.0118    0.0000 H   0  0  0  0  0  0  0  0  0  0  0  0
   -2.2188    2.0269    0.0000 H   0  0  0  0  0  0  0  0  0  0  0  0
    2.2827    7.2792    0.0000 H   0  0  0  0  0  0  0  0  0  0  0  0
    4.0964    4.8966    0.0000 H   0  0  0  0  0  0  0  0  0  0  0  0
    4.3635    6.8664    0.0000 H   0  0  0  0  0  0  0  0  0  0  0  0
    4.2031   -2.5449    0.0000 H   0  0  0  0  0  0  0  0  0  0  0  0
    6.9484   -1.3353    0.0000 H   0  0  0  0  0  0  0  0  0  0  0  0
    6.1805   -3.3127    0.0000 H   0  0  0  0  0  0  0  0  0  0  0  0
   12.9376    0.3983    0.0000 H   0  0  0  0  0  0  0  0  0  0  0  0
   14.5312   -1.6924    0.0000 H   0  0  0  0  0  0  0  0  0  0  0  0
   11.7948   -0.5183    0.0000 H   0  0  0  0  0  0  0  0  0  0  0  0
   13.6824    0.1051    0.0000 H   0  0  0  0  0  0  0  0  0  0  0  0
  1  2  1  0
  1 57  1  0
  1 58  1  0
  1 59  1  0
  2  3  1  0
  2  7  1  0
  2 60  1  6
  3  4  1  0
  3 61  1  1
  3 55  1  0
  4  5  1  0
  4 62  1  1
  4 54  1  0
  5  6  1  0
  5 63  1  0
  5 64  1  0
  6  7  1  0
  6  8  1  0
  6 65  1  6
  8  9  1  0
  9 10  1  0
  9 14  1  0
  9 66  1  1
 10 11  1  0
 10 67  1  6
 10 53  1  0
 11 12  1  0
 12 13  1  0
 12 68  1  6
 12 16  1  0
 13 14  1  0
 13 69  1  0
 13 70  1  0
 14 71  1  1
 14 15  1  0
 15 72  1  0
 16 17  1  0
 17 18  1  0
 17 22  1  0
 17 73  1  6
 18 19  1  0
 18 74  1  1
 18 52  1  0
 19 20  1  0
 20 21  1  0
 20 75  1  1
 20 24  1  0
 21 22  1  0
 21 76  1  0
 21 77  1  0
 22 78  1  6
 22 23  1  0
 23 79  1  0
 25 26  1  0
 25 30  1  0
 25 80  1  6
 25 24  1  0
 26 27  1  0
 26 81  1  0
 26 82  1  0
 27 28  1  0
 27 83  1  0
 27 84  1  0
 28 29  1  0
 28 34  1  0
 28 51  1  1
 29 30  1  0
 29 31  1  0
 29 85  1  1
 30 86  1  0
 30 87  1  0
 31 32  1  0
 31 88  1  0
 31 89  1  0
 32 33  1  0
 32 90  1  0
 32 91  1  0
 33 34  1  0
 33 38  1  0
 33 92  1  1
 34 35  1  0
 34 93  1  1
 35 36  1  0
 35 94  1  0
 35 95  1  0
 36 37  1  0
 36 96  1  6
 36 50  1  0
 37 38  1  0
 37 41  1  0
 37 49  1  6
 38 39  1  0
 38 48  1  6
 39 40  1  0
 39 97  1  0
 39 98  1  0
 40 41  1  0
 40 99  1  0
 40100  1  0
 41 42  1  0
 41101  1  1
 42 43  2  0
 42 47  1  0
 43 44  1  0
 43102  1  0
 44 45  2  0
 44 46  1  0
 46 47  1  0
 47103  1  0
 47104  1  0
 48105  1  0
 49106  1  0
 49107  1  0
 49108  1  0
 50109  1  0
 51110  1  0
 51111  1  0
 51112  1  0
 52113  1  0
 52114  1  0
 52115  1  0
 53116  1  0
 53117  1  0
 53118  1  0
 54119  1  0
 55 56  1  0
 56120  1  0
 56121  1  0
 56122  1  0
M  END
$$$$

     RDKit          2D

 85 90  0  0  1  0  0  0  0  0999 V2000
    9.2040    1.9061    0.0000 C   0  0  0  0  0  0  0  0  0  0  0  0
    7.7226    1.6706    0.0000 C   0  0  0  0  0  0  0  0  0  0  0  0
    8.2117    0.2526    0.0000 C   0  0  0  0  0  0  0  0  0  0  0  0
    7.2283   -0.8800    0.0000 C   0  0  0  0  0  0  0  0  0  0  0  0
    5.7557   -0.5947    0.0000 C   0  0  0  0  0  0  0  0  0  0  0  0
    5.2665    0.8233    0.0000 C   0  0  0  0  0  0  0  0  0  0  0  0
    6.2500    1.9560    0.0000 O   0  0  0  0  0  0  0  0  0  0  0  0
    3.9550    0.0954    0.0000 O   0  0  0  0  0  0  0  0  0  0  0  0
    2.6688    0.8672    0.0000 C   0  0  0  0  0  0  0  0  0  0  0  0
    1.7242    2.0324    0.0000 C   0  0  0  0  0  0  0  0  0  0  0  0
    0.2428    1.7969    0.0000 C   0  0  0  0  0  0  0  0  0  0  0  0
   -0.2940    0.3962    0.0000 C   0  0  0  0  0  0  0  0  0  0  0  0
   -1.7754    0.1607    0.0000 C   0  0  0  0  0  0  0  0  0  0  0  0
   -2.3122   -1.2399    0.0000 C   0  0  0  0  0  0  0  0  0  0  0  0
   -1.3675   -2.4051    0.0000 C   0  0  0  0  0  0  0  0  0  0  0  0
    0.1139   -2.1696    0.0000 C   0  0  0  0  0  0  0  0  0  0  0  0
    0.6506   -0.7689    0.0000 C   0  0  0  0  0  0  0  0  0  0  0  0
    2.1320   -0.5335    0.0000 C   0  0  0  0  0  0  0  0  0  0  0  0
    1.5953   -1.9341    0.0000 O   0  0  0  0  0  0  0  0  0  0  0  0
   -3.7936   -1.4754    0.0000 C   0  0  0  0  0  0  0  0  0  0  0  0
   -4.6098   -2.7339    0.0000 C   0  0  0  0  0  0  0  0  0  0  0  0
   -6.0589   -2.3465    0.0000 C   0  0  0  0  0  0  0  0  0  0  0  0
   -6.1383   -0.8486    0.0000 C   0  0  0  0  0  0  0  0  0  0  0  0
   -4.7382   -0.3102    0.0000 C   0  0  0  0  0  0  0  0  0  0  0  0
   -4.2014    1.0904    0.0000 C   0  0  0  0  0  0  0  0  0  0  0  0
   -2.7200    1.3259    0.0000 C   0  0  0  0  0  0  0  0  0  0  0  0
   -3.2092    2.7439    0.0000 O   0  0  0  0  0  0  0  0  0  0  0  0
   -5.7995    0.7498    0.0000 C   0  0  0  0  0  0  0  0  0  0  0  0
   -6.5273    0.6001    0.0000 C   0  0  0  0  0  0  0  0  0  0  0  0
   -7.9280    1.1369    0.0000 C   0  0  0  0  0  0  0  0  0  0  0  0
   -7.8503    2.6348    0.0000 C   0  0  0  0  0  0  0  0  0  0  0  0
   -9.0166    3.5782    0.0000 O   0  0  0  0  0  0  0  0  0  0  0  0
   -6.4017    3.0239    0.0000 O   0  0  0  0  0  0  0  0  0  0  0  0
   -5.5840    1.7663    0.0000 C   0  0  0  0  0  0  0  0  0  0  0  0
   -3.4061   -0.0263    0.0000 O   0  0  0  0  0  0  0  0  0  0  0  0
   -0.8308   -1.0044    0.0000 C   0  0  0  0  0  0  0  0  0  0  0  0
   -1.3675   -2.4051    0.0000 O   0  0  0  0  0  0  0  0  0  0  0  0
    0.2681    3.2967    0.0000 O   0  0  0  0  0  0  0  0  0  0  0  0
    4.2743   -0.8302    0.0000 O   0  0  0  0  0  0  0  0  0  0  0  0
    6.6915   -2.2807    0.0000 O   0  0  0  0  0  0  0  0  0  0  0  0
    9.1563   -0.9126    0.0000 O   0  0  0  0  0  0  0  0  0  0  0  0
    9.6183    0.4644    0.0000 H   0  0  0  0  0  0  0  0  0  0  0  0
    8.9685    3.3875    0.0000 H   0  0  0  0  0  0  0  0  0  0  0  0
   10.6854    2.1416    0.0000 H   0  0  0  0  0  0  0  0  0  0  0  0
    7.7479    3.1704    0.0000 H   0  0  0  0  0  0  0  0  0  0  0  0
    9.6022    0.8152    0.0000 H   0  0  0  0  0  0  0  0  0  0  0  0
    8.4108   -1.8029    0.0000 H   0  0  0  0  0  0  0  0  0  0  0  0
    5.7303   -2.0945    0.0000 H   0  0  0  0  0  0  0  0  0  0  0  0
    4.4709    2.0950    0.0000 H   0  0  0  0  0  0  0  0  0  0  0  0
    3.5069    2.1113    0.0000 H   0  0  0  0  0  0  0  0  0  0  0  0
    1.4115    3.4995    0.0000 H   0  0  0  0  0  0  0  0  0  0  0  0
    3.0357    2.7604    0.0000 H   0  0  0  0  0  0  0  0  0  0  0  0
   -1.1170    2.4301    0.0000 H   0  0  0  0  0  0  0  0  0  0  0  0
   -1.2386    1.5614    0.0000 H   0  0  0  0  0  0  0  0  0  0  0  0
   -2.8489   -2.6406    0.0000 H   0  0  0  0  0  0  0  0  0  0  0  0
   -1.0549   -3.8722    0.0000 H   0  0  0  0  0  0  0  0  0  0  0  0
   -2.4639   -3.4288    0.0000 H   0  0  0  0  0  0  0  0  0  0  0  0
    1.3863   -2.9639    0.0000 H   0  0  0  0  0  0  0  0  0  0  0  0
    0.2716   -3.6613    0.0000 H   0  0  0  0  0  0  0  0  0  0  0  0
    3.4918   -1.1667    0.0000 H   0  0  0  0  0  0  0  0  0  0  0  0
    2.6460   -1.9427    0.0000 H   0  0  0  0  0  0  0  0  0  0  0  0
    3.0943   -1.8810    0.0000 H   0  0  0  0  0  0  0  0  0  0  0  0
   -3.4772   -3.7174    0.0000 H   0  0  0  0  0  0  0  0  0  0  0  0
   -5.1466   -4.1346    0.0000 H   0  0  0  0  0  0  0  0  0  0  0  0
   -6.2927   -3.8281    0.0000 H   0  0  0  0  0  0  0  0  0  0  0  0
   -7.5569   -2.2688    0.0000 H   0  0  0  0  0  0  0  0  0  0  0  0
   -7.6197   -1.0841    0.0000 H   0  0  0  0  0  0  0  0  0  0  0  0
   -3.9935    2.5760    0.0000 H   0  0  0  0  0  0  0  0  0  0  0  0
   -5.3676    2.0339    0.0000 H   0  0  0  0  0  0  0  0  0  0  0  0
   -1.6236    2.3496    0.0000 H   0  0  0  0  0  0  0  0  0  0  0  0
   -2.2257    3.8766    0.0000 H   0  0  0  0  0  0  0  0  0  0  0  0
   -4.7394    1.8111    0.0000 H   0  0  0  0  0  0  0  0  0  0  0  0
   -6.8595   -0.3114    0.0000 H   0  0  0  0  0  0  0  0  0  0  0  0
   -6.8607    1.8099    0.0000 H   0  0  0  0  0  0  0  0  0  0  0  0
   -9.1855    0.3192    0.0000 H   0  0  0  0  0  0  0  0  0  0  0  0
   -4.5426    2.8460    0.0000 H   0  0  0  0  0  0  0  0  0  0  0  0
   -4.2978    0.9946    0.0000 H   0  0  0  0  0  0  0  0  0  0  0  0
   -2.0157    0.5364    0.0000 H   0  0  0  0  0  0  0  0  0  0  0  0
    0.1538   -2.1361    0.0000 H   0  0  0  0  0  0  0  0  0  0  0  0
   -2.2859   -1.3683    0.0000 H   0  0  0  0  0  0  0  0  0  0  0  0
   -0.4229   -3.5703    0.0000 H   0  0  0  0  0  0  0  0  0  0  0  0
    1.4811    4.1791    0.0000 H   0  0  0  0  0  0  0  0  0  0  0  0
    3.9122   -2.2858    0.0000 H   0  0  0  0  0  0  0  0  0  0  0  0
    7.6361   -3.4459    0.0000 H   0  0  0  0  0  0  0  0  0  0  0  0
    8.7943   -2.3683    0.0000 H   0  0  0  0  0  0  0  0  0  0  0  0
  1  2  1  0
  1 42  1  0
  1 43  1  0
  1 44  1  0
  2  3  1  0
  2  7  1  0
  2 45  1  6
  3  4  1  0
  3 41  1  0
  3 46  1  1
  4  5  1  0
  4 40  1  0
  4 47  1  6
  5  6  1  0
  5 39  1  0
  5 48  1  6
  6  7  1  0
  6  8  1  0
  6 49  1  1
  9 10  1  0
  9 18  1  0
  9 50  1  1
  9  8  1  0
 10 11  1  0
 10 51  1  0
 10 52  1  0
 11 12  1  0
 11 38  1  0
 11 53  1  1
 12 13  1  0
 12 17  1  0
 12 36  1  1
 13 14  1  0
 13 26  1  0
 13 54  1  1
 14 15  1  0
 14 20  1  0
 14 55  1  6
 15 16  1  0
 15 56  1  0
 15 57  1  0
 16 17  1  0
 16 58  1  0
 16 59  1  0
 17 18  1  0
 17 19  1  6
 18 60  1  0
 18 61  1  0
 19 62  1  0
 20 21  1  0
 20 24  1  0
 20 35  1  6
 21 22  1  0
 21 63  1  0
 21 64  1  0
 22 23  1  0
 22 65  1  0
 22 66  1  0
 23 24  1  0
 23 29  1  0
 23 67  1  1
 24 25  1  0
 24 28  1  6
 25 26  1  0
 25 68  1  0
 25 69  1  0
 26 70  1  6
 26 27  1  0
 27 71  1  0
 28 72  1  0
 28 73  1  0
 28 74  1  0
 29 30  2  0
 29 34  1  0
 30 31  1  0
 30 75  1  0
 31 32  2  0
 31 33  1  0
 33 34  1  0
 34 76  1  0
 34 77  1  0
 35 78  1  0
 36 37  1  0
 36 79  1  0
 36 80  1  0
 37 81  1  0
 38 82  1  0
 39 83  1  0
 40 84  1  0
 41 85  1  0
M  END
$$$$

     RDKit          2D

 55 54  0  0  0  0  0  0  0  0999 V2000
   12.1944    0.0000    0.0000 C   0  0  0  0  0  0  0  0  0  0  0  0
   10.6944    0.0000    0.0000 C   0  0  0  0  0  0  0  0  0  0  0  0
    9.1944    0.0000    0.0000 C   0  0  0  0  0  0  0  0  0  0  0  0
    7.6944    0.0000    0.0000 C   0  0  0  0  0  0  0  0  0  0  0  0
    6.1944    0.0000    0.0000 C   0  0  0  0  0  0  0  0  0  0  0  0
    4.6944    0.0000    0.0000 C   0  0  0  0  0  0  0  0  0  0  0  0
    3.1944    0.0000    0.0000 C   0  0  0  0  0  0  0  0  0  0  0  0
    1.6944    0.0000    0.0000 C   0  0  0  0  0  0  0  0  0  0  0  0
    0.1944    0.0000    0.0000 C   0  0  0  0  0  0  0  0  0  0  0  0
   -1.3056    0.0000    0.0000 C   0  0  0  0  0  0  0  0  0  0  0  0
   -2.8056    0.0000    0.0000 C   0  0  0  0  0  0  0  0  0  0  0  0
   -4.3056    0.0000    0.0000 C   0  0  0  0  0  0  0  0  0  0  0  0
   -5.8056    0.0000    0.0000 C   0  0  0  0  0  0  0  0  0  0  0  0
   -7.3056    0.0000    0.0000 C   0  0  0  0  0  0  0  0  0  0  0  0
   -8.8056    0.0000    0.0000 N   0  0  0  0  0  0  0  0  0  0  0  0
   -9.5556   -1.2990    0.0000 C   0  0  0  0  0  0  0  0  0  0  0  0
  -11.0556   -1.2990    0.0000 C   0  0  0  0  0  0  0  0  0  0  0  0
  -11.8056    0.0000    0.0000 C   0  0  0  0  0  0  0  0  0  0  0  0
  -11.0556    1.2990    0.0000 C   0  0  0  0  0  0  0  0  0  0  0  0
   -9.5556    1.2990    0.0000 C   0  0  0  0  0  0  0  0  0  0  0  0
    0.0000    3.5981    0.0000 Br  0  0  0  0  0  0  0  0  0  0  0  0
   12.1944    1.5000    0.0000 H   0  0  0  0  0  0  0  0  0  0  0  0
   12.1944   -1.5000    0.0000 H   0  0  0  0  0  0  0  0  0  0  0  0
   13.6944    0.0000    0.0000 H   0  0  0  0  0  0  0  0  0  0  0  0
   10.6944   -1.5000    0.0000 H   0  0  0  0  0  0  0  0  0  0  0  0
   10.6944    1.5000    0.0000 H   0  0  0  0  0  0  0  0  0  0  0  0
    9.1944    1.5000    0.0000 H   0  0  0  0  0  0  0  0  0  0  0  0
    9.1944   -1.5000    0.0000 H   0  0  0  0  0  0  0  0  0  0  0  0
    7.6944   -1.5000    0.0000 H   0  0  0  0  0  0  0  0  0  0  0  0
    7.6944    1.5000    0.0000 H   0  0  0  0  0  0  0  0  0  0  0  0
    6.1944    1.5000    0.0000 H   0  0  0  0  0  0  0  0  0  0  0  0
    6.1944   -1.5000    0.0000 H   0  0  0  0  0  0  0  0  0  0  0  0
    4.6944   -1.5000    0.0000 H   0  0  0  0  0  0  0  0  0  0  0  0
    4.6944    1.5000    0.0000 H   0  0  0  0  0  0  0  0  0  0  0  0
    3.1944    1.5000    0.0000 H   0  0  0  0  0  0  0  0  0  0  0  0
    3.1944   -1.5000    0.0000 H   0  0  0  0  0  0  0  0  0  0  0  0
    1.6944   -1.5000    0.0000 H   0  0  0  0  0  0  0  0  0  0  0  0
    1.6944    1.5000    0.0000 H   0  0  0  0  0  0  0  0  0  0  0  0
    0.1944    1.5000    0.0000 H   0  0  0  0  0  0  0  0  0  0  0  0
    0.1944   -1.5000    0.0000 H   0  0  0  0  0  0  0  0  0  0  0  0
   -1.3056   -1.5000    0.0000 H   0  0  0  0  0  0  0  0  0  0  0  0
   -1.3056    1.5000    0.0000 H   0  0  0  0  0  0  0  0  0  0  0  0
   -2.8056    1.5000    0.0000 H   0  0  0  0  0  0  0  0  0  0  0  0
   -2.8056   -1.5000    0.0000 H   0  0  0  0  0  0  0  0  0  0  0  0
   -4.3056   -1.5000    0.0000 H   0  0  0  0  0  0  0  0  0  0  0  0
   -4.3056    1.5000    0.0000 H   0  0  0  0  0  0  0  0  0  0  0  0
   -5.8056    1.5000    0.0000 H   0  0  0  0  0  0  0  0  0  0  0  0
   -5.8056   -1.5000    0.0000 H   0  0  0  0  0  0  0  0  0  0  0  0
   -7.3056   -1.5000    0.0000 H   0  0  0  0  0  0  0  0  0  0  0  0
   -7.3056    1.5000    0.0000 H   0  0  0  0  0  0  0  0  0  0  0  0
   -8.8056   -2.5981    0.0000 H   0  0  0  0  0  0  0  0  0  0  0  0
  -11.8056   -2.5981    0.0000 H   0  0  0  0  0  0  0  0  0  0  0  0
  -13.3056    0.0000    0.0000 H   0  0  0  0  0  0  0  0  0  0  0  0
  -11.8056    2.5981    0.0000 H   0  0  0  0  0  0  0  0  0  0  0  0
   -8.8056    2.5981    0.0000 H   0  0  0  0  0  0  0  0  0  0  0  0
  1  2  1  0
  1 22  1  0
  1 23  1  0
  1 24  1  0
  2  3  1  0
  2 25  1  0
  2 26  1  0
  3  4  1  0
  3 27  1  0
  3 28  1  0
  4  5  1  0
  4 29  1  0
  4 30  1  0
  5  6  1  0
  5 31  1  0
  5 32  1  0
  6  7  1  0
  6 33  1  0
  6 34  1  0
  7  8  1  0
  7 35  1  0
  7 36  1  0
  8  9  1  0
  8 37  1  0
  8 38  1  0
  9 10  1  0
  9 39  1  0
  9 40  1  0
 10 11  1  0
 10 41  1  0
 10 42  1  0
 11 12  1  0
 11 43  1  0
 11 44  1  0
 12 13  1  0
 12 45  1  0
 12 46  1  0
 13 14  1  0
 13 47  1  0
 13 48  1  0
 14 15  1  0
 14 49  1  0
 14 50  1  0
 15 16  2  0
 15 20  1  0
 16 17  1  0
 16 51  1  0
 17 18  2  0
 17 52  1  0
 18 19  1  0
 18 53  1  0
 19 20  2  0
 19 54  1  0
 20 55  1  0
M  CHG  2  15   1  21  -1
M  END
$$$$

     RDKit          2D

 74 73  0  0  0  0  0  0  0  0999 V2000
   15.4794   -2.3422    0.0000 C   0  0  0  0  0  0  0  0  0  0  0  0
   14.0528   -1.8787    0.0000 C   0  0  0  0  0  0  0  0  0  0  0  0
   12.6262   -1.4151    0.0000 C   0  0  0  0  0  0  0  0  0  0  0  0
   11.1996   -0.9516    0.0000 C   0  0  0  0  0  0  0  0  0  0  0  0
    9.7730   -0.4881    0.0000 C   0  0  0  0  0  0  0  0  0  0  0  0
    8.3464   -0.0246    0.0000 C   0  0  0  0  0  0  0  0  0  0  0  0
    6.9199    0.4390    0.0000 C   0  0  0  0  0  0  0  0  0  0  0  0
    5.4933    0.9025    0.0000 C   0  0  0  0  0  0  0  0  0  0  0  0
    4.0667    1.3660    0.0000 C   0  0  0  0  0  0  0  0  0  0  0  0
    2.6401    1.8295    0.0000 C   0  0  0  0  0  0  0  0  0  0  0  0
    1.2135    2.2931    0.0000 N   0  0  0  0  0  0  0  0  0  0  0  0
    0.7500    3.7196    0.0000 C   0  0  0  0  0  0  0  0  0  0  0  0
   -0.7500    3.7196    0.0000 C   0  0  0  0  0  0  0  0  0  0  0  0
   -1.2135    2.2931    0.0000 N   0  0  0  0  0  0  0  0  0  0  0  0
   -0.0000    1.4114    0.0000 C   0  0  0  0  0  0  0  0  0  0  0  0
   -0.0000   -0.0886    0.0000 C   0  0  0  0  0  0  0  0  0  0  0  0
   -2.6401    1.8295    0.0000 C   0  0  0  0  0  0  0  0  0  0  0  0
   -4.0667    1.3660    0.0000 C   0  0  0  0  0  0  0  0  0  0  0  0
   -5.4933    0.9025    0.0000 C   0  0  0  0  0  0  0  0  0  0  0  0
   -6.9199    0.4390    0.0000 C   0  0  0  0  0  0  0  0  0  0  0  0
   -8.3464   -0.0246    0.0000 C   0  0  0  0  0  0  0  0  0  0  0  0
   -9.7730   -0.4881    0.0000 C   0  0  0  0  0  0  0  0  0  0  0  0
  -11.1996   -0.9516    0.0000 C   0  0  0  0  0  0  0  0  0  0  0  0
  -12.6262   -1.4151    0.0000 C   0  0  0  0  0  0  0  0  0  0  0  0
  -14.0528   -1.8787    0.0000 C   0  0  0  0  0  0  0  0  0  0  0  0
  -15.4794   -2.3422    0.0000 C   0  0  0  0  0  0  0  0  0  0  0  0
    0.0000    5.9332    0.0000 Cl  0  0  0  0  0  0  0  0  0  0  0  0
   15.0158   -3.7688    0.0000 H   0  0  0  0  0  0  0  0  0  0  0  0
   15.9429   -0.9156    0.0000 H   0  0  0  0  0  0  0  0  0  0  0  0
   16.9060   -2.8057    0.0000 H   0  0  0  0  0  0  0  0  0  0  0  0
   14.5163   -0.4521    0.0000 H   0  0  0  0  0  0  0  0  0  0  0  0
   13.5893   -3.3053    0.0000 H   0  0  0  0  0  0  0  0  0  0  0  0
   12.1627   -2.8417    0.0000 H   0  0  0  0  0  0  0  0  0  0  0  0
   13.0897    0.0114    0.0000 H   0  0  0  0  0  0  0  0  0  0  0  0
   11.6631    0.4750    0.0000 H   0  0  0  0  0  0  0  0  0  0  0  0
   10.7361   -2.3782    0.0000 H   0  0  0  0  0  0  0  0  0  0  0  0
    9.3095   -1.9147    0.0000 H   0  0  0  0  0  0  0  0  0  0  0  0
   10.2366    0.9385    0.0000 H   0  0  0  0  0  0  0  0  0  0  0  0
    8.8100    1.4020    0.0000 H   0  0  0  0  0  0  0  0  0  0  0  0
    7.8829   -1.4512    0.0000 H   0  0  0  0  0  0  0  0  0  0  0  0
    6.4563   -0.9876    0.0000 H   0  0  0  0  0  0  0  0  0  0  0  0
    7.3834    1.8655    0.0000 H   0  0  0  0  0  0  0  0  0  0  0  0
    5.9568    2.3291    0.0000 H   0  0  0  0  0  0  0  0  0  0  0  0
    5.0298   -0.5241    0.0000 H   0  0  0  0  0  0  0  0  0  0  0  0
    3.6032   -0.0606    0.0000 H   0  0  0  0  0  0  0  0  0  0  0  0
    4.5302    2.7926    0.0000 H   0  0  0  0  0  0  0  0  0  0  0  0
    3.1036    3.2561    0.0000 H   0  0  0  0  0  0  0  0  0  0  0  0
    2.3539    0.3571    0.0000 H   0  0  0  0  0  0  0  0  0  0  0  0
    1.6317    4.9332    0.0000 H   0  0  0  0  0  0  0  0  0  0  0  0
   -1.6317    4.9332    0.0000 H   0  0  0  0  0  0  0  0  0  0  0  0
   -1.4888   -0.2715    0.0000 H   0  0  0  0  0  0  0  0  0  0  0  0
    1.4888   -0.2715    0.0000 H   0  0  0  0  0  0  0  0  0  0  0  0
    0.0000   -1.5886    0.0000 H   0  0  0  0  0  0  0  0  0  0  0  0
   -3.1036    3.2561    0.0000 H   0  0  0  0  0  0  0  0  0  0  0  0
   -2.3539    0.3571    0.0000 H   0  0  0  0  0  0  0  0  0  0  0  0
   -4.5302    2.7926    0.0000 H   0  0  0  0  0  0  0  0  0  0  0  0
   -3.6032   -0.0606    0.0000 H   0  0  0  0  0  0  0  0  0  0  0  0
   -5.0298   -0.5241    0.0000 H   0  0  0  0  0  0  0  0  0  0  0  0
   -5.9568    2.3291    0.0000 H   0  0  0  0  0  0  0  0  0  0  0  0
   -7.3834    1.8655    0.0000 H   0  0  0  0  0  0  0  0  0  0  0  0
   -6.4563   -0.9876    0.0000 H   0  0  0  0  0  0  0  0  0  0  0  0
   -7.8829   -1.4512    0.0000 H   0  0  0  0  0  0  0  0  0  0  0  0
   -8.8100    1.4020    0.0000 H   0  0  0  0  0  0  0  0  0  0  0  0
  -10.2366    0.9385    0.0000 H   0  0  0  0  0  0  0  0  0  0  0  0
   -9.3095   -1.9147    0.0000 H   0  0  0  0  0  0  0  0  0  0  0  0
  -10.7361   -2.3782    0.0000 H   0  0  0  0  0  0  0  0  0  0  0  0
  -11.6631    0.4750    0.0000 H   0  0  0  0  0  0  0  0  0  0  0  0
  -13.0897    0.0114    0.0000 H   0  0  0  0  0  0  0  0  0  0  0  0
  -12.1627   -2.8417    0.0000 H   0  0  0  0  0  0  0  0  0  0  0  0
  -13.5893   -3.3053    0.0000 H   0  0  0  0  0  0  0  0  0  0  0  0
  -14.5163   -0.4521    0.0000 H   0  0  0  0  0  0  0  0  0  0  0  0
  -15.9429   -0.9156    0.0000 H   0  0  0  0  0  0  0  0  0  0  0  0
  -15.0158   -3.7688    0.0000 H   0  0  0  0  0  0  0  0  0  0  0  0
  -16.9060   -2.8057    0.0000 H   0  0  0  0  0  0  0  0  0  0  0  0
  1  2  1  0
  1 28  1  0
  1 29  1  0
  1 30  1  0
  2  3  1  0
  2 31  1  0
  2 32  1  0
  3  4  1  0
  3 33  1  0
  3 34  1  0
  4  5  1  0
  4 35  1  0
  4 36  1  0
  5  6  1  0
  5 37  1  0
  5 38  1  0
  6  7  1  0
  6 39  1  0
  6 40  1  0
  7  8  1  0
  7 41  1  0
  7 42  1  0
  8  9  1  0
  8 43  1  0
  8 44  1  0
  9 10  1  0
  9 45  1  0
  9 46  1  0
 10 11  1  0
 10 47  1  0
 10 48  1  0
 11 12  1  0
 11 15  1  0
 12 13  2  0
 12 49  1  0
 13 14  1  0
 13 50  1  0
 14 15  2  0
 14 17  1  0
 15 16  1  0
 16 51  1  0
 16 52  1  0
 16 53  1  0
 17 18  1  0
 17 54  1  0
 17 55  1  0
 18 19  1  0
 18 56  1  0
 18 57  1  0
 19 20  1  0
 19 58  1  0
 19 59  1  0
 20 21  1  0
 20 60  1  0
 20 61  1  0
 21 22  1  0
 21 62  1  0
 21 63  1  0
 22 23  1  0
 22 64  1  0
 22 65  1  0
 23 24  1  0
 23 66  1  0
 23 67  1  0
 24 25  1  0
 24 68  1  0
 24 69  1  0
 25 26  1  0
 25 70  1  0
 25 71  1  0
 26 72  1  0
 26 73  1  0
 26 74  1  0
M  CHG  2  14   1  27  -1
M  END
$$$$

     RDKit          2D

 47 49  0  0  0  0  0  0  0  0999 V2000
   -3.4475    0.4353    0.0000 C   0  0  0  0  0  0  0  0  0  0  0  0
   -1.9792    0.1284    0.0000 C   0  0  0  0  0  0  0  0  0  0  0  0
   -2.2861   -1.3398    0.0000 C   0  0  0  0  0  0  0  0  0  0  0  0
   -1.6723    1.5967    0.0000 C   0  0  0  0  0  0  0  0  0  0  0  0
   -1.6774    3.0967    0.0000 C   0  0  0  0  0  0  0  0  0  0  0  0
   -0.2524    3.5650    0.0000 C   0  0  0  0  0  0  0  0  0  0  0  0
    0.6334    2.3545    0.0000 C   0  0  0  0  0  0  0  0  0  0  0  0
   -0.2442    1.1380    0.0000 C   0  0  0  0  0  0  0  0  0  0  0  0
   -0.8496   -0.2344    0.0000 C   0  0  0  0  0  0  0  0  0  0  0  0
   -1.4551   -1.6067    0.0000 N   0  0  0  0  0  0  0  0  0  0  0  0
   -0.7007   -2.9032    0.0000 C   0  0  0  0  0  0  0  0  0  0  0  0
   -1.7006   -4.0213    0.0000 N   0  0  0  0  0  0  0  0  0  0  0  0
   -3.0730   -3.4159    0.0000 C   0  0  0  0  0  0  0  0  0  0  0  0
   -2.9212   -1.9236    0.0000 N   0  0  0  0  0  0  0  0  0  0  0  0
    1.0574    0.3924    0.0000 O   0  0  0  0  0  0  0  0  0  0  0  0
    1.7515    1.3546    0.0000 C   0  0  0  0  0  0  0  0  0  0  0  0
    2.8696    0.3547    0.0000 C   0  0  0  0  0  0  0  0  0  0  0  0
    2.5627   -1.1136    0.0000 C   0  0  0  0  0  0  0  0  0  0  0  0
    3.6808   -2.1135    0.0000 C   0  0  0  0  0  0  0  0  0  0  0  0
    5.1059   -1.6451    0.0000 C   0  0  0  0  0  0  0  0  0  0  0  0
    5.4127   -0.1769    0.0000 C   0  0  0  0  0  0  0  0  0  0  0  0
    4.2946    0.8230    0.0000 C   0  0  0  0  0  0  0  0  0  0  0  0
    6.2240   -2.6451    0.0000 Cl  0  0  0  0  0  0  0  0  0  0  0  0
   -3.9310   -0.9846    0.0000 H   0  0  0  0  0  0  0  0  0  0  0  0
   -3.3218    1.9301    0.0000 H   0  0  0  0  0  0  0  0  0  0  0  0
   -4.9157    0.7422    0.0000 H   0  0  0  0  0  0  0  0  0  0  0  0
   -1.2615   -0.2186    0.0000 H   0  0  0  0  0  0  0  0  0  0  0  0
   -0.9357   -1.9929    0.0000 H   0  0  0  0  0  0  0  0  0  0  0  0
   -3.7808   -1.2142    0.0000 H   0  0  0  0  0  0  0  0  0  0  0  0
   -2.2286   -2.8387    0.0000 H   0  0  0  0  0  0  0  0  0  0  0  0
   -3.1350    1.9292    0.0000 H   0  0  0  0  0  0  0  0  0  0  0  0
   -1.9942    4.5628    0.0000 H   0  0  0  0  0  0  0  0  0  0  0  0
   -3.1686    2.9348    0.0000 H   0  0  0  0  0  0  0  0  0  0  0  0
    1.0441    4.3194    0.0000 H   0  0  0  0  0  0  0  0  0  0  0  0
   -0.8671    4.9333    0.0000 H   0  0  0  0  0  0  0  0  0  0  0  0
    1.7447    3.3620    0.0000 H   0  0  0  0  0  0  0  0  0  0  0  0
    0.4387   -1.0026    0.0000 H   0  0  0  0  0  0  0  0  0  0  0  0
   -2.3277    0.0210    0.0000 H   0  0  0  0  0  0  0  0  0  0  0  0
    0.7916   -3.0550    0.0000 H   0  0  0  0  0  0  0  0  0  0  0  0
   -4.3695   -4.1703    0.0000 H   0  0  0  0  0  0  0  0  0  0  0  0
    1.0625   -1.1076    0.0000 H   0  0  0  0  0  0  0  0  0  0  0  0
    2.7514    2.4727    0.0000 H   0  0  0  0  0  0  0  0  0  0  0  0
    1.0519    0.0278    0.0000 H   0  0  0  0  0  0  0  0  0  0  0  0
    1.2054   -1.7522    0.0000 H   0  0  0  0  0  0  0  0  0  0  0  0
    3.3740   -3.5818    0.0000 H   0  0  0  0  0  0  0  0  0  0  0  0
    6.8378    0.2915    0.0000 H   0  0  0  0  0  0  0  0  0  0  0  0
    4.6015    2.2913    0.0000 H   0  0  0  0  0  0  0  0  0  0  0  0
  1  2  1  0
  1 24  1  0
  1 25  1  0
  1 26  1  0
  2  3  1  0
  2  4  1  0
  2 27  1  0
  3 28  1  0
  3 29  1  0
  3 30  1  0
  4  5  1  0
  4  8  1  0
  4 31  1  6
  5  6  1  0
  5 32  1  0
  5 33  1  0
  6  7  1  0
  6 34  1  0
  6 35  1  0
  7  8  1  0
  7 16  1  0
  7 36  1  6
  8  9  1  0
  8 15  1  1
  9 10  1  0
  9 37  1  0
  9 38  1  0
 10 11  1  0
 10 14  1  0
 11 12  2  0
 11 39  1  0
 12 13  1  0
 13 14  2  0
 13 40  1  0
 15 41  1  0
 16 17  1  0
 16 42  1  0
 16 43  1  0
 17 18  2  0
 17 22  1  0
 18 19  1  0
 18 44  1  0
 19 20  2  0
 19 45  1  0
 20 21  1  0
 20 23  1  0
 21 22  2  0
 21 46  1  0
 22 47  1  0
M  END
$$$$

     RDKit          2D

 57 59  0  0  0  0  0  0  0  0999 V2000
   -6.1233    1.0804    0.0000 C   0  0  0  0  0  0  0  0  0  0  0  0
   -4.7860    0.4012    0.0000 C   0  0  0  0  0  0  0  0  0  0  0  0
   -3.4486   -0.2781    0.0000 C   0  0  0  0  0  0  0  0  0  0  0  0
   -2.1916    0.5404    0.0000 C   0  0  0  0  0  0  0  0  0  0  0  0
   -2.2720    2.0383    0.0000 C   0  0  0  0  0  0  0  0  0  0  0  0
   -1.0151    2.8568    0.0000 C   0  0  0  0  0  0  0  0  0  0  0  0
   -1.0955    4.3546    0.0000 C   0  0  0  0  0  0  0  0  0  0  0  0
   -2.4328    5.0339    0.0000 C   0  0  0  0  0  0  0  0  0  0  0  0
   -3.6898    4.2154    0.0000 C   0  0  0  0  0  0  0  0  0  0  0  0
   -3.6094    2.7175    0.0000 C   0  0  0  0  0  0  0  0  0  0  0  0
   -0.8543   -0.1389    0.0000 C   0  0  0  0  0  0  0  0  0  0  0  0
   -0.7739   -1.6367    0.0000 C   0  0  0  0  0  0  0  0  0  0  0  0
    0.5635   -2.3160    0.0000 C   0  0  0  0  0  0  0  0  0  0  0  0
    1.8205   -1.4975    0.0000 C   0  0  0  0  0  0  0  0  0  0  0  0
    1.7401    0.0004    0.0000 C   0  0  0  0  0  0  0  0  0  0  0  0
    0.4027    0.6797    0.0000 C   0  0  0  0  0  0  0  0  0  0  0  0
    3.1579   -2.1768    0.0000 O   0  0  0  0  0  0  0  0  0  0  0  0
    4.4148   -1.3582    0.0000 C   0  0  0  0  0  0  0  0  0  0  0  0
    5.6718   -0.5397    0.0000 C   0  0  0  0  0  0  0  0  0  0  0  0
    6.9288    0.2789    0.0000 N   0  0  0  0  0  0  0  0  0  0  0  0
    6.8484    1.7767    0.0000 C   0  0  0  0  0  0  0  0  0  0  0  0
    8.2661   -0.4004    0.0000 C   0  0  0  0  0  0  0  0  0  0  0  0
   -3.3682   -1.7760    0.0000 C   0  0  0  0  0  0  0  0  0  0  0  0
   -4.6252   -2.5945    0.0000 C   0  0  0  0  0  0  0  0  0  0  0  0
   -4.5448   -4.0924    0.0000 C   0  0  0  0  0  0  0  0  0  0  0  0
   -3.2074   -4.7717    0.0000 C   0  0  0  0  0  0  0  0  0  0  0  0
   -1.9504   -3.9531    0.0000 C   0  0  0  0  0  0  0  0  0  0  0  0
   -2.0308   -2.4553    0.0000 C   0  0  0  0  0  0  0  0  0  0  0  0
   -6.8026   -0.2569    0.0000 H   0  0  0  0  0  0  0  0  0  0  0  0
   -5.7093    2.2227    0.0000 H   0  0  0  0  0  0  0  0  0  0  0  0
   -7.4607    1.7597    0.0000 H   0  0  0  0  0  0  0  0  0  0  0  0
   -5.4653   -0.9362    0.0000 H   0  0  0  0  0  0  0  0  0  0  0  0
   -4.4133    1.4292    0.0000 H   0  0  0  0  0  0  0  0  0  0  0  0
    0.3951    2.3456    0.0000 H   0  0  0  0  0  0  0  0  0  0  0  0
    0.1615    5.1732    0.0000 H   0  0  0  0  0  0  0  0  0  0  0  0
   -2.5132    6.5318    0.0000 H   0  0  0  0  0  0  0  0  0  0  0  0
   -5.0272    4.8947    0.0000 H   0  0  0  0  0  0  0  0  0  0  0  0
   -4.4465    2.4282    0.0000 H   0  0  0  0  0  0  0  0  0  0  0  0
   -1.3168   -2.2205    0.0000 H   0  0  0  0  0  0  0  0  0  0  0  0
    0.6439   -3.8139    0.0000 H   0  0  0  0  0  0  0  0  0  0  0  0
    2.9971    0.8189    0.0000 H   0  0  0  0  0  0  0  0  0  0  0  0
    0.5055    2.1761    0.0000 H   0  0  0  0  0  0  0  0  0  0  0  0
    5.2334   -2.6152    0.0000 H   0  0  0  0  0  0  0  0  0  0  0  0
    3.5963   -0.1012    0.0000 H   0  0  0  0  0  0  0  0  0  0  0  0
    4.8532    0.7173    0.0000 H   0  0  0  0  0  0  0  0  0  0  0  0
    6.4903   -1.7966    0.0000 H   0  0  0  0  0  0  0  0  0  0  0  0
    8.3462    1.8571    0.0000 H   0  0  0  0  0  0  0  0  0  0  0  0
    5.3505    1.6963    0.0000 H   0  0  0  0  0  0  0  0  0  0  0  0
    6.7680    3.2746    0.0000 H   0  0  0  0  0  0  0  0  0  0  0  0
    8.9454    0.9370    0.0000 H   0  0  0  0  0  0  0  0  0  0  0  0
    7.5868   -1.7378    0.0000 H   0  0  0  0  0  0  0  0  0  0  0  0
    9.6035   -1.0797    0.0000 H   0  0  0  0  0  0  0  0  0  0  0  0
   -5.9625   -1.9152    0.0000 H   0  0  0  0  0  0  0  0  0  0  0  0
   -5.8017   -4.9109    0.0000 H   0  0  0  0  0  0  0  0  0  0  0  0
   -3.1270   -6.2695    0.0000 H   0  0  0  0  0  0  0  0  0  0  0  0
   -0.6131   -4.6324    0.0000 H   0  0  0  0  0  0  0  0  0  0  0  0
   -0.6131   -1.9652    0.0000 H   0  0  0  0  0  0  0  0  0  0  0  0
  1  2  1  0
  1 29  1  0
  1 30  1  0
  1 31  1  0
  2  3  1  0
  2 32  1  0
  2 33  1  0
  3  4  2  0
  3 23  1  0
  4  5  1  0
  4 11  1  0
  5  6  2  0
  5 10  1  0
  6  7  1  0
  6 34  1  0
  7  8  2  0
  7 35  1  0
  8  9  1  0
  8 36  1  0
  9 10  2  0
  9 37  1  0
 10 38  1  0
 11 12  2  0
 11 16  1  0
 12 13  1  0
 12 39  1  0
 13 14  2  0
 13 40  1  0
 14 15  1  0
 14 17  1  0
 15 16  2  0
 15 41  1  0
 16 42  1  0
 17 18  1  0
 18 19  1  0
 18 43  1  0
 18 44  1  0
 19 20  1  0
 19 45  1  0
 19 46  1  0
 20 21  1  0
 20 22  1  0
 21 47  1  0
 21 48  1  0
 21 49  1  0
 22 50  1  0
 22 51  1  0
 22 52  1  0
 23 24  2  0
 23 28  1  0
 24 25  1  0
 24 53  1  0
 25 26  2  0
 25 54  1  0
 26 27  1  0
 26 55  1  0
 27 28  2  0
 27 56  1  0
 28 57  1  0
M  END
$$$$

     RDKit          2D

 78 79  0  0  0  0  0  0  0  0999 V2000
   -8.2737   -0.3755    0.0000 C   0  0  0  0  0  0  0  0  0  0  0  0
   -6.9337    0.2985    0.0000 N   0  0  0  0  0  0  0  0  0  0  0  0
   -6.8474    1.7960    0.0000 C   0  0  0  0  0  0  0  0  0  0  0  0
   -5.6800   -0.5251    0.0000 C   0  0  0  0  0  0  0  0  0  0  0  0
   -4.4262   -1.3486    0.0000 C   0  0  0  0  0  0  0  0  0  0  0  0
   -3.1725   -2.1721    0.0000 O   0  0  0  0  0  0  0  0  0  0  0  0
   -1.8325   -1.4981    0.0000 C   0  0  0  0  0  0  0  0  0  0  0  0
   -1.7461   -0.0006    0.0000 C   0  0  0  0  0  0  0  0  0  0  0  0
   -0.4061    0.6734    0.0000 C   0  0  0  0  0  0  0  0  0  0  0  0
    0.8476   -0.1501    0.0000 C   0  0  0  0  0  0  0  0  0  0  0  0
    0.7613   -1.6476    0.0000 C   0  0  0  0  0  0  0  0  0  0  0  0
   -0.5788   -2.3216    0.0000 C   0  0  0  0  0  0  0  0  0  0  0  0
    2.1877    0.5239    0.0000 C   0  0  0  0  0  0  0  0  0  0  0  0
    3.4414   -0.2997    0.0000 C   0  0  0  0  0  0  0  0  0  0  0  0
    4.7814    0.3743    0.0000 C   0  0  0  0  0  0  0  0  0  0  0  0
    6.1215    1.0483    0.0000 C   0  0  0  0  0  0  0  0  0  0  0  0
    7.4615    1.7223    0.0000 Cl  0  0  0  0  0  0  0  0  0  0  0  0
    3.3551   -1.7972    0.0000 C   0  0  0  0  0  0  0  0  0  0  0  0
    4.6088   -2.6207    0.0000 C   0  0  0  0  0  0  0  0  0  0  0  0
    4.5225   -4.1182    0.0000 C   0  0  0  0  0  0  0  0  0  0  0  0
    3.1824   -4.7922    0.0000 C   0  0  0  0  0  0  0  0  0  0  0  0
    1.9287   -3.9687    0.0000 C   0  0  0  0  0  0  0  0  0  0  0  0
    2.0150   -2.4712    0.0000 C   0  0  0  0  0  0  0  0  0  0  0  0
    2.2740    2.0214    0.0000 C   0  0  0  0  0  0  0  0  0  0  0  0
    3.6140    2.6954    0.0000 C   0  0  0  0  0  0  0  0  0  0  0  0
    3.7004    4.1929    0.0000 C   0  0  0  0  0  0  0  0  0  0  0  0
    2.4467    5.0164    0.0000 C   0  0  0  0  0  0  0  0  0  0  0  0
    1.1066    4.3424    0.0000 C   0  0  0  0  0  0  0  0  0  0  0  0
    1.0203    2.8449    0.0000 C   0  0  0  0  0  0  0  0  0  0  0  0
   -1.4721    9.6842    0.0000 C   0  0  0  0  0  0  0  0  0  0  0  0
   -2.9669    9.5595    0.0000 C   0  0  0  0  0  0  0  0  0  0  0  0
   -3.8222   10.7918    0.0000 O   0  0  0  0  0  0  0  0  0  0  0  0
   -3.6063    8.2027    0.0000 O   0  0  0  0  0  0  0  0  0  0  0  0
    0.0228    9.8088    0.0000 C   0  0  0  0  0  0  0  0  0  0  0  0
    1.5176    9.9335    0.0000 C   0  0  0  0  0  0  0  0  0  0  0  0
    3.0124   10.0581    0.0000 C   0  0  0  0  0  0  0  0  0  0  0  0
    3.6518   11.4150    0.0000 O   0  0  0  0  0  0  0  0  0  0  0  0
    3.8677    8.8259    0.0000 O   0  0  0  0  0  0  0  0  0  0  0  0
   -0.1019   11.3036    0.0000 C   0  0  0  0  0  0  0  0  0  0  0  0
    1.0169   12.3028    0.0000 O   0  0  0  0  0  0  0  0  0  0  0  0
   -1.4588   11.9431    0.0000 O   0  0  0  0  0  0  0  0  0  0  0  0
    0.1474    8.3140    0.0000 O   0  0  0  0  0  0  0  0  0  0  0  0
   -8.9477    0.9645    0.0000 H   0  0  0  0  0  0  0  0  0  0  0  0
   -7.5997   -1.7156    0.0000 H   0  0  0  0  0  0  0  0  0  0  0  0
   -9.6138   -1.0495    0.0000 H   0  0  0  0  0  0  0  0  0  0  0  0
   -8.3449    1.8823    0.0000 H   0  0  0  0  0  0  0  0  0  0  0  0
   -5.3498    1.7096    0.0000 H   0  0  0  0  0  0  0  0  0  0  0  0
   -6.7610    3.2935    0.0000 H   0  0  0  0  0  0  0  0  0  0  0  0
   -6.5035   -1.7788    0.0000 H   0  0  0  0  0  0  0  0  0  0  0  0
   -4.8564    0.7287    0.0000 H   0  0  0  0  0  0  0  0  0  0  0  0
   -5.2498   -2.6023    0.0000 H   0  0  0  0  0  0  0  0  0  0  0  0
   -3.6027   -0.0949    0.0000 H   0  0  0  0  0  0  0  0  0  0  0  0
   -2.9999    0.8229    0.0000 H   0  0  0  0  0  0  0  0  0  0  0  0
   -0.5030    2.1703    0.0000 H   0  0  0  0  0  0  0  0  0  0  0  0
    1.3019   -2.2335    0.0000 H   0  0  0  0  0  0  0  0  0  0  0  0
   -0.6651   -3.8191    0.0000 H   0  0  0  0  0  0  0  0  0  0  0  0
    4.2758    1.7866    0.0000 H   0  0  0  0  0  0  0  0  0  0  0  0
    5.4554   -0.9657    0.0000 H   0  0  0  0  0  0  0  0  0  0  0  0
    5.6159    2.4605    0.0000 H   0  0  0  0  0  0  0  0  0  0  0  0
    6.7955   -0.2917    0.0000 H   0  0  0  0  0  0  0  0  0  0  0  0
    5.9488   -1.9467    0.0000 H   0  0  0  0  0  0  0  0  0  0  0  0
    5.7762   -4.9417    0.0000 H   0  0  0  0  0  0  0  0  0  0  0  0
    3.0961   -6.2897    0.0000 H   0  0  0  0  0  0  0  0  0  0  0  0
    0.5886   -4.6427    0.0000 H   0  0  0  0  0  0  0  0  0  0  0  0
    0.5993   -1.9755    0.0000 H   0  0  0  0  0  0  0  0  0  0  0  0
    5.0298    2.1997    0.0000 H   0  0  0  0  0  0  0  0  0  0  0  0
    5.0404    4.8669    0.0000 H   0  0  0  0  0  0  0  0  0  0  0  0
    2.5330    6.5139    0.0000 H   0  0  0  0  0  0  0  0  0  0  0  0
   -0.1471    5.1659    0.0000 H   0  0  0  0  0  0  0  0  0  0  0  0
   -0.3919    2.3393    0.0000 H   0  0  0  0  0  0  0  0  0  0  0  0
   -1.9547   11.1044    0.0000 H   0  0  0  0  0  0  0  0  0  0  0  0
   -1.3474    8.1894    0.0000 H   0  0  0  0  0  0  0  0  0  0  0  0
   -5.1012    8.0780    0.0000 H   0  0  0  0  0  0  0  0  0  0  0  0
    1.5761   11.4323    0.0000 H   0  0  0  0  0  0  0  0  0  0  0  0
    1.8235    8.4650    0.0000 H   0  0  0  0  0  0  0  0  0  0  0  0
    5.3625    8.9505    0.0000 H   0  0  0  0  0  0  0  0  0  0  0  0
   -1.5834   13.4379    0.0000 H   0  0  0  0  0  0  0  0  0  0  0  0
    1.4162    7.5139    0.0000 H   0  0  0  0  0  0  0  0  0  0  0  0
  1  2  1  0
  1 43  1  0
  1 44  1  0
  1 45  1  0
  2  3  1  0
  2  4  1  0
  3 46  1  0
  3 47  1  0
  3 48  1  0
  4  5  1  0
  4 49  1  0
  4 50  1  0
  5  6  1  0
  5 51  1  0
  5 52  1  0
  6  7  1  0
  7  8  2  0
  7 12  1  0
  8  9  1  0
  8 53  1  0
  9 10  2  0
  9 54  1  0
 10 11  1  0
 10 13  1  0
 11 12  2  0
 11 55  1  0
 12 56  1  0
 13 14  2  0
 13 24  1  0
 14 15  1  0
 14 18  1  0
 15 16  1  0
 15 57  1  0
 15 58  1  0
 16 17  1  0
 16 59  1  0
 16 60  1  0
 18 19  2  0
 18 23  1  0
 19 20  1  0
 19 61  1  0
 20 21  2  0
 20 62  1  0
 21 22  1  0
 21 63  1  0
 22 23  2  0
 22 64  1  0
 23 65  1  0
 24 25  2  0
 24 29  1  0
 25 26  1  0
 25 66  1  0
 26 27  2  0
 26 67  1  0
 27 28  1  0
 27 68  1  0
 28 29  2  0
 28 69  1  0
 29 70  1  0
 30 31  1  0
 30 34  1  0
 30 71  1  0
 30 72  1  0
 31 32  2  0
 31 33  1  0
 33 73  1  0
 34 35  1  0
 34 39  1  0
 34 42  1  0
 35 36  1  0
 35 74  1  0
 35 75  1  0
 36 37  2  0
 36 38  1  0
 38 76  1  0
 39 40  2  0
 39 41  1  0
 41 77  1  0
 42 78  1  0
M  END
$$$$

     RDKit          2D

119126  0  0  1  0  0  0  0  0999 V2000
   11.3187   -5.0507    0.0000 C   0  0  0  0  0  0  0  0  0  0  0  0
   10.2855   -3.9632    0.0000 C   0  0  0  0  0  0  0  0  0  0  0  0
   11.5359   -3.1346    0.0000 C   0  0  0  0  0  0  0  0  0  0  0  0
   11.4434   -1.6374    0.0000 C   0  0  0  0  0  0  0  0  0  0  0  0
   10.1007   -0.9689    0.0000 C   0  0  0  0  0  0  0  0  0  0  0  0
    8.8503   -1.7975    0.0000 C   0  0  0  0  0  0  0  0  0  0  0  0
    8.9427   -3.2946    0.0000 O   0  0  0  0  0  0  0  0  0  0  0  0
    8.2514   -0.4223    0.0000 O   0  0  0  0  0  0  0  0  0  0  0  0
    6.7609   -0.2533    0.0000 C   0  0  0  0  0  0  0  0  0  0  0  0
    5.3026   -0.6043    0.0000 C   0  0  0  0  0  0  0  0  0  0  0  0
    4.2694    0.4832    0.0000 O   0  0  0  0  0  0  0  0  0  0  0  0
    4.6946    1.9217    0.0000 C   0  0  0  0  0  0  0  0  0  0  0  0
    6.1530    2.2726    0.0000 C   0  0  0  0  0  0  0  0  0  0  0  0
    7.1861    1.1852    0.0000 C   0  0  0  0  0  0  0  0  0  0  0  0
    8.0777    2.3915    0.0000 O   0  0  0  0  0  0  0  0  0  0  0  0
    4.6022    3.4188    0.0000 O   0  0  0  0  0  0  0  0  0  0  0  0
    3.2594    4.0873    0.0000 C   0  0  0  0  0  0  0  0  0  0  0  0
    2.2263    5.1748    0.0000 C   0  0  0  0  0  0  0  0  0  0  0  0
    0.7679    4.8238    0.0000 O   0  0  0  0  0  0  0  0  0  0  0  0
    0.3427    3.3853    0.0000 C   0  0  0  0  0  0  0  0  0  0  0  0
    1.3759    2.2979    0.0000 C   0  0  0  0  0  0  0  0  0  0  0  0
    2.8342    2.6489    0.0000 C   0  0  0  0  0  0  0  0  0  0  0  0
    2.9266    1.1517    0.0000 O   0  0  0  0  0  0  0  0  0  0  0  0
   -0.5488    2.1790    0.0000 O   0  0  0  0  0  0  0  0  0  0  0  0
   -2.0393    2.3480    0.0000 C   0  0  0  0  0  0  0  0  0  0  0  0
   -3.3821    3.0165    0.0000 C   0  0  0  0  0  0  0  0  0  0  0  0
   -4.6324    2.1879    0.0000 C   0  0  0  0  0  0  0  0  0  0  0  0
   -4.5400    0.6908    0.0000 C   0  0  0  0  0  0  0  0  0  0  0  0
   -3.1972    0.0222    0.0000 C   0  0  0  0  0  0  0  0  0  0  0  0
   -1.9469    0.8508    0.0000 C   0  0  0  0  0  0  0  0  0  0  0  0
   -3.1048   -1.4749    0.0000 C   0  0  0  0  0  0  0  0  0  0  0  0
   -4.3551   -2.3035    0.0000 C   0  0  0  0  0  0  0  0  0  0  0  0
   -5.6979   -1.6350    0.0000 C   0  0  0  0  0  0  0  0  0  0  0  0
   -5.7904   -0.1379    0.0000 C   0  0  0  0  0  0  0  0  0  0  0  0
   -7.1331    0.5307    0.0000 C   0  0  0  0  0  0  0  0  0  0  0  0
   -8.3835   -0.2979    0.0000 C   0  0  0  0  0  0  0  0  0  0  0  0
   -8.2911   -1.7951    0.0000 C   0  0  0  0  0  0  0  0  0  0  0  0
   -6.9483   -2.4636    0.0000 C   0  0  0  0  0  0  0  0  0  0  0  0
   -7.1692   -3.9473    0.0000 C   0  0  0  0  0  0  0  0  0  0  0  0
   -8.6484   -4.1957    0.0000 C   0  0  0  0  0  0  0  0  0  0  0  0
   -9.3418   -2.8656    0.0000 C   0  0  0  0  0  0  0  0  0  0  0  0
  -10.2966   -1.7087    0.0000 C   0  0  0  0  0  0  0  0  0  0  0  0
  -11.7938   -1.8011    0.0000 C   0  0  0  0  0  0  0  0  0  0  0  0
  -12.3443   -0.4058    0.0000 C   0  0  0  0  0  0  0  0  0  0  0  0
  -13.7967   -0.0310    0.0000 O   0  0  0  0  0  0  0  0  0  0  0  0
  -11.1874    0.5490    0.0000 O   0  0  0  0  0  0  0  0  0  0  0  0
   -9.9219   -0.2562    0.0000 C   0  0  0  0  0  0  0  0  0  0  0  0
   -7.1967   -0.9843    0.0000 O   0  0  0  0  0  0  0  0  0  0  0  0
   -9.6964   -1.2706    0.0000 C   0  0  0  0  0  0  0  0  0  0  0  0
   -8.9824    1.0773    0.0000 O   0  0  0  0  0  0  0  0  0  0  0  0
   -3.2896    1.5194    0.0000 C   0  0  0  0  0  0  0  0  0  0  0  0
    3.4766    6.0034    0.0000 C   0  0  0  0  0  0  0  0  0  0  0  0
    5.9015   -1.9795    0.0000 C   0  0  0  0  0  0  0  0  0  0  0  0
   11.8686   -0.1989    0.0000 O   0  0  0  0  0  0  0  0  0  0  0  0
   12.9942   -2.7836    0.0000 O   0  0  0  0  0  0  0  0  0  0  0  0
   10.2312   -6.0838    0.0000 H   0  0  0  0  0  0  0  0  0  0  0  0
   11.9592   -4.5761    0.0000 H   0  0  0  0  0  0  0  0  0  0  0  0
   12.3518   -6.1381    0.0000 H   0  0  0  0  0  0  0  0  0  0  0  0
    9.3940   -5.1695    0.0000 H   0  0  0  0  0  0  0  0  0  0  0  0
   11.9409   -3.8212    0.0000 H   0  0  0  0  0  0  0  0  0  0  0  0
   12.9434   -1.6234    0.0000 H   0  0  0  0  0  0  0  0  0  0  0  0
   10.9922    0.2374    0.0000 H   0  0  0  0  0  0  0  0  0  0  0  0
    9.2078    0.2364    0.0000 H   0  0  0  0  0  0  0  0  0  0  0  0
    7.3919   -2.1485    0.0000 H   0  0  0  0  0  0  0  0  0  0  0  0
    6.8534   -1.7504    0.0000 H   0  0  0  0  0  0  0  0  0  0  0  0
    4.0522   -1.4329    0.0000 H   0  0  0  0  0  0  0  0  0  0  0  0
    3.2076    1.7249    0.0000 H   0  0  0  0  0  0  0  0  0  0  0  0
    7.4033    3.1013    0.0000 H   0  0  0  0  0  0  0  0  0  0  0  0
    5.5541    3.6479    0.0000 H   0  0  0  0  0  0  0  0  0  0  0  0
    8.6004    0.6853    0.0000 H   0  0  0  0  0  0  0  0  0  0  0  0
    9.5681    2.2225    0.0000 H   0  0  0  0  0  0  0  0  0  0  0  0
    4.2914    5.1760    0.0000 H   0  0  0  0  0  0  0  0  0  0  0  0
    1.6274    6.5501    0.0000 H   0  0  0  0  0  0  0  0  0  0  0  0
   -0.9086    4.2126    0.0000 H   0  0  0  0  0  0  0  0  0  0  0  0
    1.9748    0.9226    0.0000 H   0  0  0  0  0  0  0  0  0  0  0  0
    0.2358    1.3230    0.0000 H   0  0  0  0  0  0  0  0  0  0  0  0
    4.2395    2.1243    0.0000 H   0  0  0  0  0  0  0  0  0  0  0  0
    4.0678    0.1781    0.0000 H   0  0  0  0  0  0  0  0  0  0  0  0
   -1.7926    3.8276    0.0000 H   0  0  0  0  0  0  0  0  0  0  0  0
   -4.4152    4.1040    0.0000 H   0  0  0  0  0  0  0  0  0  0  0  0
   -2.4905    4.2228    0.0000 H   0  0  0  0  0  0  0  0  0  0  0  0
   -6.1324    2.2002    0.0000 H   0  0  0  0  0  0  0  0  0  0  0  0
   -5.2313    3.5632    0.0000 H   0  0  0  0  0  0  0  0  0  0  0  0
   -1.8544   -0.6463    0.0000 H   0  0  0  0  0  0  0  0  0  0  0  0
   -0.4566    1.0215    0.0000 H   0  0  0  0  0  0  0  0  0  0  0  0
   -1.0330   -0.3386    0.0000 H   0  0  0  0  0  0  0  0  0  0  0  0
   -2.5059   -2.8502    0.0000 H   0  0  0  0  0  0  0  0  0  0  0  0
   -1.6048   -1.4872    0.0000 H   0  0  0  0  0  0  0  0  0  0  0  0
   -4.9283   -3.6897    0.0000 H   0  0  0  0  0  0  0  0  0  0  0  0
   -3.3220   -3.3910    0.0000 H   0  0  0  0  0  0  0  0  0  0  0  0
   -5.6055   -3.1322    0.0000 H   0  0  0  0  0  0  0  0  0  0  0  0
   -5.8828    1.3593    0.0000 H   0  0  0  0  0  0  0  0  0  0  0  0
   -8.0260    1.7360    0.0000 H   0  0  0  0  0  0  0  0  0  0  0  0
   -6.5600    1.9169    0.0000 H   0  0  0  0  0  0  0  0  0  0  0  0
   -9.8359    0.0770    0.0000 H   0  0  0  0  0  0  0  0  0  0  0  0
   -5.7307   -4.3726    0.0000 H   0  0  0  0  0  0  0  0  0  0  0  0
   -7.0767   -5.4444    0.0000 H   0  0  0  0  0  0  0  0  0  0  0  0
   -8.2468   -5.6409    0.0000 H   0  0  0  0  0  0  0  0  0  0  0  0
  -10.0438   -4.7462    0.0000 H   0  0  0  0  0  0  0  0  0  0  0  0
  -10.5922   -3.6942    0.0000 H   0  0  0  0  0  0  0  0  0  0  0  0
  -12.5990   -3.0666    0.0000 H   0  0  0  0  0  0  0  0  0  0  0  0
   -9.5981    1.2084    0.0000 H   0  0  0  0  0  0  0  0  0  0  0  0
   -8.4314   -0.4251    0.0000 H   0  0  0  0  0  0  0  0  0  0  0  0
   -6.3052    0.2220    0.0000 H   0  0  0  0  0  0  0  0  0  0  0  0
   -9.1719    0.1347    0.0000 H   0  0  0  0  0  0  0  0  0  0  0  0
  -10.2209   -2.6759    0.0000 H   0  0  0  0  0  0  0  0  0  0  0  0
  -11.1017   -0.7461    0.0000 H   0  0  0  0  0  0  0  0  0  0  0  0
   -8.2445    2.3833    0.0000 H   0  0  0  0  0  0  0  0  0  0  0  0
   -1.9709    0.8045    0.0000 H   0  0  0  0  0  0  0  0  0  0  0  0
   -3.4341    3.0124    0.0000 H   0  0  0  0  0  0  0  0  0  0  0  0
   -1.8759    2.0208    0.0000 H   0  0  0  0  0  0  0  0  0  0  0  0
    2.6480    7.2538    0.0000 H   0  0  0  0  0  0  0  0  0  0  0  0
    4.4515    4.8634    0.0000 H   0  0  0  0  0  0  0  0  0  0  0  0
    4.7270    6.8320    0.0000 H   0  0  0  0  0  0  0  0  0  0  0  0
    4.5262   -2.5785    0.0000 H   0  0  0  0  0  0  0  0  0  0  0  0
    7.2767   -1.3806    0.0000 H   0  0  0  0  0  0  0  0  0  0  0  0
    6.5004   -3.3548    0.0000 H   0  0  0  0  0  0  0  0  0  0  0  0
   13.3270    0.1521    0.0000 H   0  0  0  0  0  0  0  0  0  0  0  0
   13.5916   -1.4076    0.0000 H   0  0  0  0  0  0  0  0  0  0  0  0
  1  2  1  0
  1 56  1  0
  1 57  1  0
  1 58  1  0
  2  3  1  0
  2  7  1  0
  2 59  1  6
  3  4  1  0
  3 60  1  1
  3 55  1  0
  4  5  1  0
  4 61  1  6
  4 54  1  0
  5  6  1  0
  5 62  1  0
  5 63  1  0
  6  7  1  0
  6  8  1  0
  6 64  1  6
  8  9  1  0
  9 10  1  0
  9 14  1  0
  9 65  1  1
 10 11  1  0
 10 66  1  6
 10 53  1  0
 11 12  1  0
 12 13  1  0
 12 67  1  6
 12 16  1  0
 13 14  1  0
 13 68  1  0
 13 69  1  0
 14 70  1  1
 14 15  1  0
 15 71  1  0
 16 17  1  0
 17 18  1  0
 17 22  1  0
 17 72  1  6
 18 19  1  0
 18 73  1  1
 18 52  1  0
 19 20  1  0
 20 21  1  0
 20 74  1  1
 20 24  1  0
 21 22  1  0
 21 75  1  0
 21 76  1  0
 22 77  1  6
 22 23  1  0
 23 78  1  0
 24 25  1  0
 25 26  1  0
 25 30  1  0
 25 79  1  1
 26 27  1  0
 26 80  1  0
 26 81  1  0
 27 28  1  0
 27 82  1  0
 27 83  1  0
 28 29  1  0
 28 34  1  0
 28 51  1  1
 29 30  1  0
 29 31  1  0
 29 84  1  1
 30 85  1  0
 30 86  1  0
 31 32  1  0
 31 87  1  0
 31 88  1  0
 32 33  1  0
 32 89  1  0
 32 90  1  0
 33 34  1  0
 33 38  1  0
 33 91  1  1
 34 35  1  0
 34 92  1  1
 35 36  1  0
 35 93  1  0
 35 94  1  0
 36 37  1  0
 36 50  1  0
 36 95  1  1
 37 38  1  0
 37 41  1  0
 37 49  1  6
 38 39  1  0
 38 48  1  6
 39 40  1  0
 39 96  1  0
 39 97  1  0
 40 41  1  0
 40 98  1  0
 40 99  1  0
 41100  1  1
 41 42  1  0
 42 43  2  0
 42 47  1  0
 43 44  1  0
 43101  1  0
 44 45  2  0
 44 46  1  0
 46 47  1  0
 47102  1  0
 47103  1  0
 48104  1  0
 49105  1  0
 49106  1  0
 49107  1  0
 50108  1  0
 51109  1  0
 51110  1  0
 51111  1  0
 52112  1  0
 52113  1  0
 52114  1  0
 53115  1  0
 53116  1  0
 53117  1  0
 54118  1  0
 55119  1  0
M  END
$$$$

     RDKit          2D

 85 90  0  0  1  0  0  0  0  0999 V2000
    9.2040    1.9061    0.0000 C   0  0  0  0  0  0  0  0  0  0  0  0
    7.7226    1.6706    0.0000 C   0  0  0  0  0  0  0  0  0  0  0  0
    8.2117    0.2526    0.0000 C   0  0  0  0  0  0  0  0  0  0  0  0
    7.2283   -0.8800    0.0000 C   0  0  0  0  0  0  0  0  0  0  0  0
    5.7557   -0.5947    0.0000 C   0  0  0  0  0  0  0  0  0  0  0  0
    5.2665    0.8233    0.0000 C   0  0  0  0  0  0  0  0  0  0  0  0
    6.2500    1.9560    0.0000 O   0  0  0  0  0  0  0  0  0  0  0  0
    3.9550    0.0954    0.0000 O   0  0  0  0  0  0  0  0  0  0  0  0
    2.6688    0.8672    0.0000 C   0  0  0  0  0  0  0  0  0  0  0  0
    1.7242    2.0324    0.0000 C   0  0  0  0  0  0  0  0  0  0  0  0
    0.2428    1.7969    0.0000 C   0  0  0  0  0  0  0  0  0  0  0  0
   -0.2940    0.3962    0.0000 C   0  0  0  0  0  0  0  0  0  0  0  0
   -1.7754    0.1607    0.0000 C   0  0  0  0  0  0  0  0  0  0  0  0
   -2.3122   -1.2399    0.0000 C   0  0  0  0  0  0  0  0  0  0  0  0
   -1.3675   -2.4051    0.0000 C   0  0  0  0  0  0  0  0  0  0  0  0
    0.1139   -2.1696    0.0000 C   0  0  0  0  0  0  0  0  0  0  0  0
    0.6506   -0.7689    0.0000 C   0  0  0  0  0  0  0  0  0  0  0  0
    2.1320   -0.5335    0.0000 C   0  0  0  0  0  0  0  0  0  0  0  0
    1.5953   -1.9341    0.0000 O   0  0  0  0  0  0  0  0  0  0  0  0
   -3.7936   -1.4754    0.0000 C   0  0  0  0  0  0  0  0  0  0  0  0
   -4.6098   -2.7339    0.0000 C   0  0  0  0  0  0  0  0  0  0  0  0
   -6.0589   -2.3465    0.0000 C   0  0  0  0  0  0  0  0  0  0  0  0
   -6.1383   -0.8486    0.0000 C   0  0  0  0  0  0  0  0  0  0  0  0
   -4.7382   -0.3102    0.0000 C   0  0  0  0  0  0  0  0  0  0  0  0
   -4.2014    1.0904    0.0000 C   0  0  0  0  0  0  0  0  0  0  0  0
   -2.7200    1.3259    0.0000 C   0  0  0  0  0  0  0  0  0  0  0  0
   -3.2092    2.7439    0.0000 O   0  0  0  0  0  0  0  0  0  0  0  0
   -5.7995    0.7498    0.0000 C   0  0  0  0  0  0  0  0  0  0  0  0
   -6.5273    0.6001    0.0000 C   0  0  0  0  0  0  0  0  0  0  0  0
   -7.9280    1.1369    0.0000 C   0  0  0  0  0  0  0  0  0  0  0  0
   -7.8503    2.6348    0.0000 C   0  0  0  0  0  0  0  0  0  0  0  0
   -9.0166    3.5782    0.0000 O   0  0  0  0  0  0  0  0  0  0  0  0
   -6.4017    3.0239    0.0000 O   0  0  0  0  0  0  0  0  0  0  0  0
   -5.5840    1.7663    0.0000 C   0  0  0  0  0  0  0  0  0  0  0  0
   -3.4061   -0.0263    0.0000 O   0  0  0  0  0  0  0  0  0  0  0  0
   -0.8308   -1.0044    0.0000 C   0  0  0  0  0  0  0  0  0  0  0  0
   -1.3675   -2.4051    0.0000 O   0  0  0  0  0  0  0  0  0  0  0  0
    0.2681    3.2967    0.0000 O   0  0  0  0  0  0  0  0  0  0  0  0
    4.2743   -0.8302    0.0000 O   0  0  0  0  0  0  0  0  0  0  0  0
    6.6915   -2.2807    0.0000 O   0  0  0  0  0  0  0  0  0  0  0  0
    9.1563   -0.9126    0.0000 O   0  0  0  0  0  0  0  0  0  0  0  0
    9.6183    0.4644    0.0000 H   0  0  0  0  0  0  0  0  0  0  0  0
    8.9685    3.3875    0.0000 H   0  0  0  0  0  0  0  0  0  0  0  0
   10.6854    2.1416    0.0000 H   0  0  0  0  0  0  0  0  0  0  0  0
    7.7479    3.1704    0.0000 H   0  0  0  0  0  0  0  0  0  0  0  0
    9.6022    0.8152    0.0000 H   0  0  0  0  0  0  0  0  0  0  0  0
    8.4108   -1.8029    0.0000 H   0  0  0  0  0  0  0  0  0  0  0  0
    5.7303   -2.0945    0.0000 H   0  0  0  0  0  0  0  0  0  0  0  0
    4.4709    2.0950    0.0000 H   0  0  0  0  0  0  0  0  0  0  0  0
    3.5069    2.1113    0.0000 H   0  0  0  0  0  0  0  0  0  0  0  0
    1.4115    3.4995    0.0000 H   0  0  0  0  0  0  0  0  0  0  0  0
    3.0357    2.7604    0.0000 H   0  0  0  0  0  0  0  0  0  0  0  0
   -1.1170    2.4301    0.0000 H   0  0  0  0  0  0  0  0  0  0  0  0
   -1.2386    1.5614    0.0000 H   0  0  0  0  0  0  0  0  0  0  0  0
   -2.8489   -2.6406    0.0000 H   0  0  0  0  0  0  0  0  0  0  0  0
   -1.0549   -3.8722    0.0000 H   0  0  0  0  0  0  0  0  0  0  0  0
   -2.4639   -3.4288    0.0000 H   0  0  0  0  0  0  0  0  0  0  0  0
    1.3863   -2.9639    0.0000 H   0  0  0  0  0  0  0  0  0  0  0  0
    0.2716   -3.6613    0.0000 H   0  0  0  0  0  0  0  0  0  0  0  0
    3.4918   -1.1667    0.0000 H   0  0  0  0  0  0  0  0  0  0  0  0
    2.6460   -1.9427    0.0000 H   0  0  0  0  0  0  0  0  0  0  0  0
    3.0943   -1.8810    0.0000 H   0  0  0  0  0  0  0  0  0  0  0  0
   -3.4772   -3.7174    0.0000 H   0  0  0  0  0  0  0  0  0  0  0  0
   -5.1466   -4.1346    0.0000 H   0  0  0  0  0  0  0  0  0  0  0  0
   -6.2927   -3.8281    0.0000 H   0  0  0  0  0  0  0  0  0  0  0  0
   -7.5569   -2.2688    0.0000 H   0  0  0  0  0  0  0  0  0  0  0  0
   -7.6197   -1.0841    0.0000 H   0  0  0  0  0  0  0  0  0  0  0  0
   -3.9935    2.5760    0.0000 H   0  0  0  0  0  0  0  0  0  0  0  0
   -5.3676    2.0339    0.0000 H   0  0  0  0  0  0  0  0  0  0  0  0
   -1.6236    2.3496    0.0000 H   0  0  0  0  0  0  0  0  0  0  0  0
   -2.2257    3.8766    0.0000 H   0  0  0  0  0  0  0  0  0  0  0  0
   -4.7394    1.8111    0.0000 H   0  0  0  0  0  0  0  0  0  0  0  0
   -6.8595   -0.3114    0.0000 H   0  0  0  0  0  0  0  0  0  0  0  0
   -6.8607    1.8099    0.0000 H   0  0  0  0  0  0  0  0  0  0  0  0
   -9.1855    0.3192    0.0000 H   0  0  0  0  0  0  0  0  0  0  0  0
   -4.5426    2.8460    0.0000 H   0  0  0  0  0  0  0  0  0  0  0  0
   -4.2978    0.9946    0.0000 H   0  0  0  0  0  0  0  0  0  0  0  0
   -2.0157    0.5364    0.0000 H   0  0  0  0  0  0  0  0  0  0  0  0
    0.1538   -2.1361    0.0000 H   0  0  0  0  0  0  0  0  0  0  0  0
   -2.2859   -1.3683    0.0000 H   0  0  0  0  0  0  0  0  0  0  0  0
   -0.4229   -3.5703    0.0000 H   0  0  0  0  0  0  0  0  0  0  0  0
    1.4811    4.1791    0.0000 H   0  0  0  0  0  0  0  0  0  0  0  0
    3.9122   -2.2858    0.0000 H   0  0  0  0  0  0  0  0  0  0  0  0
    7.6361   -3.4459    0.0000 H   0  0  0  0  0  0  0  0  0  0  0  0
    8.7943   -2.3683    0.0000 H   0  0  0  0  0  0  0  0  0  0  0  0
  1  2  1  0
  1 42  1  0
  1 43  1  0
  1 44  1  0
  2  3  1  0
  2  7  1  0
  2 45  1  6
  3  4  1  0
  3 41  1  0
  3 46  1  1
  4  5  1  0
  4 40  1  0
  4 47  1  6
  5  6  1  0
  5 39  1  0
  5 48  1  6
  6  7  1  0
  6  8  1  0
  6 49  1  1
  9 10  1  0
  9 18  1  0
  9 50  1  1
  9  8  1  0
 10 11  1  0
 10 51  1  0
 10 52  1  0
 11 12  1  0
 11 38  1  0
 11 53  1  1
 12 13  1  0
 12 17  1  0
 12 36  1  1
 13 14  1  0
 13 26  1  0
 13 54  1  1
 14 15  1  0
 14 20  1  0
 14 55  1  6
 15 16  1  0
 15 56  1  0
 15 57  1  0
 16 17  1  0
 16 58  1  0
 16 59  1  0
 17 18  1  0
 17 19  1  6
 18 60  1  0
 18 61  1  0
 19 62  1  0
 20 21  1  0
 20 24  1  0
 20 35  1  6
 21 22  1  0
 21 63  1  0
 21 64  1  0
 22 23  1  0
 22 65  1  0
 22 66  1  0
 23 24  1  0
 23 29  1  0
 23 67  1  1
 24 25  1  0
 24 28  1  6
 25 26  1  0
 25 68  1  0
 25 69  1  0
 26 70  1  6
 26 27  1  0
 27 71  1  0
 28 72  1  0
 28 73  1  0
 28 74  1  0
 29 30  2  0
 29 34  1  0
 30 31  1  0
 30 75  1  0
 31 32  2  0
 31 33  1  0
 33 34  1  0
 34 76  1  0
 34 77  1  0
 35 78  1  0
 36 37  1  0
 36 79  1  0
 36 80  1  0
 37 81  1  0
 38 82  1  0
 39 83  1  0
 40 84  1  0
 41 85  1  0
M  END
$$$$

     RDKit          2D

 43 44  0  0  1  0  0  0  0  0999 V2000
   -4.7878   -1.1495    0.0000 C   0  0  0  0  0  0  0  0  0  0  0  0
   -3.2965   -0.9888    0.0000 C   0  0  0  0  0  0  0  0  0  0  0  0
   -3.7136    0.4520    0.0000 C   0  0  0  0  0  0  0  0  0  0  0  0
   -2.6744    1.5337    0.0000 C   0  0  0  0  0  0  0  0  0  0  0  0
   -1.2181    1.1745    0.0000 C   0  0  0  0  0  0  0  0  0  0  0  0
   -0.0548    2.1215    0.0000 O   0  0  0  0  0  0  0  0  0  0  0  0
   -0.8009   -0.2663    0.0000 C   0  0  0  0  0  0  0  0  0  0  0  0
   -1.8401   -1.3480    0.0000 C   0  0  0  0  0  0  0  0  0  0  0  0
    0.0839   -1.4775    0.0000 C   0  0  0  0  0  0  0  0  0  0  0  0
    1.2952   -0.5927    0.0000 C   0  0  0  0  0  0  0  0  0  0  0  0
    2.5064    0.2921    0.0000 C   0  0  0  0  0  0  0  0  0  0  0  0
    3.1674   -1.0544    0.0000 C   0  0  0  0  0  0  0  0  0  0  0  0
    4.6640   -1.1552    0.0000 C   0  0  0  0  0  0  0  0  0  0  0  0
    5.3251   -2.5017    0.0000 O   0  0  0  0  0  0  0  0  0  0  0  0
    5.4996    0.0905    0.0000 N   0  0  0  0  0  0  0  0  0  0  0  0
    4.8386    1.4370    0.0000 C   0  0  0  0  0  0  0  0  0  0  0  0
    5.6742    2.6827    0.0000 O   0  0  0  0  0  0  0  0  0  0  0  0
    3.3420    1.5378    0.0000 C   0  0  0  0  0  0  0  0  0  0  0  0
    0.9687   -2.6888    0.0000 O   0  0  0  0  0  0  0  0  0  0  0  0
   -2.0679    2.9056    0.0000 C   0  0  0  0  0  0  0  0  0  0  0  0
   -4.6272   -2.6408    0.0000 H   0  0  0  0  0  0  0  0  0  0  0  0
   -4.9692   -0.3732    0.0000 H   0  0  0  0  0  0  0  0  0  0  0  0
   -6.2792   -1.3101    0.0000 H   0  0  0  0  0  0  0  0  0  0  0  0
   -3.3972   -2.4854    0.0000 H   0  0  0  0  0  0  0  0  0  0  0  0
   -4.4667    0.1905    0.0000 H   0  0  0  0  0  0  0  0  0  0  0  0
   -4.5985    1.6632    0.0000 H   0  0  0  0  0  0  0  0  0  0  0  0
   -3.9202    2.3693    0.0000 H   0  0  0  0  0  0  0  0  0  0  0  0
    0.4550    0.5540    0.0000 H   0  0  0  0  0  0  0  0  0  0  0  0
   -0.7055   -2.3292    0.0000 H   0  0  0  0  0  0  0  0  0  0  0  0
   -2.4467   -2.7199    0.0000 H   0  0  0  0  0  0  0  0  0  0  0  0
   -1.0105   -2.5034    0.0000 H   0  0  0  0  0  0  0  0  0  0  0  0
    2.1800   -1.8040    0.0000 H   0  0  0  0  0  0  0  0  0  0  0  0
    0.5646    0.7174    0.0000 H   0  0  0  0  0  0  0  0  0  0  0  0
    1.4247    1.3313    0.0000 H   0  0  0  0  0  0  0  0  0  0  0  0
    3.5087   -2.5151    0.0000 H   0  0  0  0  0  0  0  0  0  0  0  0
    1.7882   -1.6441    0.0000 H   0  0  0  0  0  0  0  0  0  0  0  0
    6.9962   -0.0102    0.0000 H   0  0  0  0  0  0  0  0  0  0  0  0
    1.9701    2.1444    0.0000 H   0  0  0  0  0  0  0  0  0  0  0  0
    3.7011    2.9942    0.0000 H   0  0  0  0  0  0  0  0  0  0  0  0
    2.4546   -2.8938    0.0000 H   0  0  0  0  0  0  0  0  0  0  0  0
   -0.6323    2.4707    0.0000 H   0  0  0  0  0  0  0  0  0  0  0  0
   -3.4398    3.5121    0.0000 H   0  0  0  0  0  0  0  0  0  0  0  0
   -1.4613    4.2775    0.0000 H   0  0  0  0  0  0  0  0  0  0  0  0
  1 21  1  0
  1 22  1  0
  1 23  1  0
  2  3  1  0
  2  8  1  0
  2 24  1  6
  2  1  1  0
  3  4  1  0
  3 25  1  0
  3 26  1  0
  4  5  1  0
  4 20  1  0
  4 27  1  1
  5  6  2  0
  5  7  1  0
  7  8  1  0
  7  9  1  0
  7 28  1  1
  8 29  1  0
  8 30  1  0
  9 10  1  0
  9 19  1  0
  9 31  1  6
 10 11  1  0
 10 32  1  0
 10 33  1  0
 11 12  1  0
 11 18  1  0
 11 34  1  0
 12 13  1  0
 12 35  1  0
 12 36  1  0
 13 14  2  0
 13 15  1  0
 15 16  1  0
 15 37  1  0
 16 17  2  0
 16 18  1  0
 18 38  1  0
 18 39  1  0
 19 40  1  0
 20 41  1  0
 20 42  1  0
 20 43  1  0
M  END
$$$$

     RDKit          2D

 19 19  0  0  0  0  0  0  0  0999 V2000
    2.4907   -1.5321    0.0000 C   0  0  0  0  0  0  0  0  0  0  0  0
    1.0262   -1.2077    0.0000 C   0  0  0  0  0  0  0  0  0  0  0  0
    0.5749    0.2228    0.0000 C   0  0  0  0  0  0  0  0  0  0  0  0
    1.5882    1.3289    0.0000 C   0  0  0  0  0  0  0  0  0  0  0  0
    3.0527    1.0044    0.0000 C   0  0  0  0  0  0  0  0  0  0  0  0
    3.5039   -0.4261    0.0000 C   0  0  0  0  0  0  0  0  0  0  0  0
    4.0659    2.1105    0.0000 Cl  0  0  0  0  0  0  0  0  0  0  0  0
   -0.8895    0.5472    0.0000 N   0  0  0  0  0  0  0  0  0  0  0  0
   -1.9028   -0.5589    0.0000 N   0  0  0  0  0  0  0  0  0  0  0  0
   -3.3673   -0.2345    0.0000 C   0  0  0  0  0  0  0  0  0  0  0  0
   -4.3805   -1.3405    0.0000 C   0  0  0  0  0  0  0  0  0  0  0  0
   -5.3937   -2.4466    0.0000 N   0  0  0  0  0  0  0  0  0  0  0  0
   -3.8185    1.1960    0.0000 C   0  0  0  0  0  0  0  0  0  0  0  0
   -4.2698    2.6265    0.0000 N   0  0  0  0  0  0  0  0  0  0  0  0
    2.9420   -2.9626    0.0000 H   0  0  0  0  0  0  0  0  0  0  0  0
    0.0130   -2.3138    0.0000 H   0  0  0  0  0  0  0  0  0  0  0  0
    1.1369    2.7594    0.0000 H   0  0  0  0  0  0  0  0  0  0  0  0
    4.9684   -0.7505    0.0000 H   0  0  0  0  0  0  0  0  0  0  0  0
   -1.3408    1.9777    0.0000 H   0  0  0  0  0  0  0  0  0  0  0  0
  1  2  2  0
  1  6  1  0
  1 15  1  0
  2  3  1  0
  2 16  1  0
  3  4  2  0
  3  8  1  0
  4  5  1  0
  4 17  1  0
  5  6  2  0
  5  7  1  0
  6 18  1  0
  8  9  1  0
  8 19  1  0
  9 10  2  0
 10 11  1  0
 10 13  1  0
 11 12  3  0
 13 14  3  0
M  END
$$$$

     RDKit          2D

 66 65  0  0  0  0  0  0  0  0999 V2000
    0.0000    5.4142    0.0000 B   0  0  0  0  0  0  0  0  0  0  0  0
    1.5000    5.4142    0.0000 F   0  0  0  0  0  0  0  0  0  0  0  0
   -1.5000    5.4142    0.0000 F   0  0  0  0  0  0  0  0  0  0  0  0
    0.0000    6.9142    0.0000 F   0  0  0  0  0  0  0  0  0  0  0  0
   -0.0000    3.9142    0.0000 F   0  0  0  0  0  0  0  0  0  0  0  0
   13.9756   -0.1459    0.0000 C   0  0  0  0  0  0  0  0  0  0  0  0
   12.4758   -0.1201    0.0000 C   0  0  0  0  0  0  0  0  0  0  0  0
   10.9760   -0.0943    0.0000 C   0  0  0  0  0  0  0  0  0  0  0  0
    9.4763   -0.0685    0.0000 C   0  0  0  0  0  0  0  0  0  0  0  0
    7.9765   -0.0426    0.0000 C   0  0  0  0  0  0  0  0  0  0  0  0
    6.4767   -0.0168    0.0000 C   0  0  0  0  0  0  0  0  0  0  0  0
    4.9769    0.0090    0.0000 C   0  0  0  0  0  0  0  0  0  0  0  0
    3.4772    0.0348    0.0000 C   0  0  0  0  0  0  0  0  0  0  0  0
    1.9774    0.0607    0.0000 C   0  0  0  0  0  0  0  0  0  0  0  0
    0.4776    0.0865    0.0000 C   0  0  0  0  0  0  0  0  0  0  0  0
   -1.0222    0.1123    0.0000 C   0  0  0  0  0  0  0  0  0  0  0  0
   -2.5220    0.1381    0.0000 C   0  0  0  0  0  0  0  0  0  0  0  0
   -4.0217    0.1640    0.0000 C   0  0  0  0  0  0  0  0  0  0  0  0
   -5.5215    0.1898    0.0000 C   0  0  0  0  0  0  0  0  0  0  0  0
   -7.0213    0.2156    0.0000 C   0  0  0  0  0  0  0  0  0  0  0  0
   -8.5211    0.2414    0.0000 C   0  0  0  0  0  0  0  0  0  0  0  0
  -10.0208    0.2673    0.0000 N   0  0  0  0  0  0  0  0  0  0  0  0
  -10.8815    1.4958    0.0000 C   0  0  0  0  0  0  0  0  0  0  0  0
  -12.3158    1.0569    0.0000 C   0  0  0  0  0  0  0  0  0  0  0  0
  -12.3417   -0.4429    0.0000 N   0  0  0  0  0  0  0  0  0  0  0  0
  -10.9233   -0.9309    0.0000 C   0  0  0  0  0  0  0  0  0  0  0  0
  -13.5702   -1.3035    0.0000 C   0  0  0  0  0  0  0  0  0  0  0  0
   14.0014    1.3538    0.0000 H   0  0  0  0  0  0  0  0  0  0  0  0
   13.9498   -1.6457    0.0000 H   0  0  0  0  0  0  0  0  0  0  0  0
   15.4754   -0.1718    0.0000 H   0  0  0  0  0  0  0  0  0  0  0  0
   12.4500   -1.6199    0.0000 H   0  0  0  0  0  0  0  0  0  0  0  0
   12.5017    1.3797    0.0000 H   0  0  0  0  0  0  0  0  0  0  0  0
   11.0019    1.4055    0.0000 H   0  0  0  0  0  0  0  0  0  0  0  0
   10.9502   -1.5941    0.0000 H   0  0  0  0  0  0  0  0  0  0  0  0
    9.4504   -1.5682    0.0000 H   0  0  0  0  0  0  0  0  0  0  0  0
    9.5021    1.4313    0.0000 H   0  0  0  0  0  0  0  0  0  0  0  0
    8.0023    1.4571    0.0000 H   0  0  0  0  0  0  0  0  0  0  0  0
    7.9507   -1.5424    0.0000 H   0  0  0  0  0  0  0  0  0  0  0  0
    6.4509   -1.5166    0.0000 H   0  0  0  0  0  0  0  0  0  0  0  0
    6.5025    1.4830    0.0000 H   0  0  0  0  0  0  0  0  0  0  0  0
    5.0028    1.5088    0.0000 H   0  0  0  0  0  0  0  0  0  0  0  0
    4.9511   -1.4908    0.0000 H   0  0  0  0  0  0  0  0  0  0  0  0
    3.4513   -1.4649    0.0000 H   0  0  0  0  0  0  0  0  0  0  0  0
    3.5030    1.5346    0.0000 H   0  0  0  0  0  0  0  0  0  0  0  0
    2.0032    1.5604    0.0000 H   0  0  0  0  0  0  0  0  0  0  0  0
    1.9516   -1.4391    0.0000 H   0  0  0  0  0  0  0  0  0  0  0  0
    0.4518   -1.4133    0.0000 H   0  0  0  0  0  0  0  0  0  0  0  0
    0.5034    1.5863    0.0000 H   0  0  0  0  0  0  0  0  0  0  0  0
   -0.9963    1.6121    0.0000 H   0  0  0  0  0  0  0  0  0  0  0  0
   -1.0480   -1.3875    0.0000 H   0  0  0  0  0  0  0  0  0  0  0  0
   -2.5478   -1.3616    0.0000 H   0  0  0  0  0  0  0  0  0  0  0  0
   -2.4961    1.6379    0.0000 H   0  0  0  0  0  0  0  0  0  0  0  0
   -3.9959    1.6637    0.0000 H   0  0  0  0  0  0  0  0  0  0  0  0
   -4.0476   -1.3358    0.0000 H   0  0  0  0  0  0  0  0  0  0  0  0
   -5.5473   -1.3100    0.0000 H   0  0  0  0  0  0  0  0  0  0  0  0
   -5.4957    1.6896    0.0000 H   0  0  0  0  0  0  0  0  0  0  0  0
   -6.9955    1.7154    0.0000 H   0  0  0  0  0  0  0  0  0  0  0  0
   -7.0471   -1.2842    0.0000 H   0  0  0  0  0  0  0  0  0  0  0  0
   -8.5469   -1.2583    0.0000 H   0  0  0  0  0  0  0  0  0  0  0  0
   -8.4952    1.7412    0.0000 H   0  0  0  0  0  0  0  0  0  0  0  0
  -10.3935    2.9142    0.0000 H   0  0  0  0  0  0  0  0  0  0  0  0
  -13.5140    1.9593    0.0000 H   0  0  0  0  0  0  0  0  0  0  0  0
  -10.4844   -2.3653    0.0000 H   0  0  0  0  0  0  0  0  0  0  0  0
  -14.4309   -0.0750    0.0000 H   0  0  0  0  0  0  0  0  0  0  0  0
  -12.7095   -2.5321    0.0000 H   0  0  0  0  0  0  0  0  0  0  0  0
  -14.7987   -2.1642    0.0000 H   0  0  0  0  0  0  0  0  0  0  0  0
  1  2  1  0
  1  3  1  0
  1  4  1  0
  1  5  1  0
  6  7  1  0
  6 28  1  0
  6 29  1  0
  6 30  1  0
  7  8  1  0
  7 31  1  0
  7 32  1  0
  8  9  1  0
  8 33  1  0
  8 34  1  0
  9 10  1  0
  9 35  1  0
  9 36  1  0
 10 11  1  0
 10 37  1  0
 10 38  1  0
 11 12  1  0
 11 39  1  0
 11 40  1  0
 12 13  1  0
 12 41  1  0
 12 42  1  0
 13 14  1  0
 13 43  1  0
 13 44  1  0
 14 15  1  0
 14 45  1  0
 14 46  1  0
 15 16  1  0
 15 47  1  0
 15 48  1  0
 16 17  1  0
 16 49  1  0
 16 50  1  0
 17 18  1  0
 17 51  1  0
 17 52  1  0
 18 19  1  0
 18 53  1  0
 18 54  1  0
 19 20  1  0
 19 55  1  0
 19 56  1  0
 20 21  1  0
 20 57  1  0
 20 58  1  0
 21 22  1  0
 21 59  1  0
 21 60  1  0
 22 23  1  0
 22 26  1  0
 23 24  2  0
 23 61  1  0
 24 25  1  0
 24 62  1  0
 25 26  2  0
 25 27  1  0
 26 63  1  0
 27 64  1  0
 27 65  1  0
 27 66  1  0
M  CHG  2   1  -1  25   1
M  END
$$$$

     RDKit          2D

 78 79  0  0  0  0  0  0  0  0999 V2000
   -8.8771   -0.9073    0.0000 C   0  0  0  0  0  0  0  0  0  0  0  0
   -7.4665   -0.3972    0.0000 C   0  0  0  0  0  0  0  0  0  0  0  0
   -6.0559    0.1130    0.0000 N   0  0  0  0  0  0  0  0  0  0  0  0
   -5.7924    1.5897    0.0000 C   0  0  0  0  0  0  0  0  0  0  0  0
   -5.5290    3.0663    0.0000 C   0  0  0  0  0  0  0  0  0  0  0  0
   -4.9088   -0.8535    0.0000 C   0  0  0  0  0  0  0  0  0  0  0  0
   -3.7617   -1.8200    0.0000 C   0  0  0  0  0  0  0  0  0  0  0  0
   -2.6146   -2.7866    0.0000 O   0  0  0  0  0  0  0  0  0  0  0  0
   -1.2040   -2.2764    0.0000 C   0  0  0  0  0  0  0  0  0  0  0  0
   -0.9406   -0.7997    0.0000 C   0  0  0  0  0  0  0  0  0  0  0  0
    0.4700   -0.2896    0.0000 C   0  0  0  0  0  0  0  0  0  0  0  0
    1.6171   -1.2561    0.0000 C   0  0  0  0  0  0  0  0  0  0  0  0
    1.3536   -2.7328    0.0000 C   0  0  0  0  0  0  0  0  0  0  0  0
   -0.0569   -3.2429    0.0000 C   0  0  0  0  0  0  0  0  0  0  0  0
    3.0277   -0.7459    0.0000 C   0  0  0  0  0  0  0  0  0  0  0  0
    4.1748   -1.7125    0.0000 C   0  0  0  0  0  0  0  0  0  0  0  0
    5.5854   -1.2023    0.0000 C   0  0  0  0  0  0  0  0  0  0  0  0
    5.8489    0.2744    0.0000 C   0  0  0  0  0  0  0  0  0  0  0  0
    7.2594    0.7845    0.0000 C   0  0  0  0  0  0  0  0  0  0  0  0
    8.4065   -0.1820    0.0000 C   0  0  0  0  0  0  0  0  0  0  0  0
    8.1431   -1.6587    0.0000 C   0  0  0  0  0  0  0  0  0  0  0  0
    6.7325   -2.1688    0.0000 C   0  0  0  0  0  0  0  0  0  0  0  0
    3.9113   -3.1891    0.0000 Cl  0  0  0  0  0  0  0  0  0  0  0  0
    3.2912    0.7307    0.0000 C   0  0  0  0  0  0  0  0  0  0  0  0
    4.7018    1.2409    0.0000 C   0  0  0  0  0  0  0  0  0  0  0  0
    4.9652    2.7176    0.0000 C   0  0  0  0  0  0  0  0  0  0  0  0
    3.8181    3.6841    0.0000 C   0  0  0  0  0  0  0  0  0  0  0  0
    2.4076    3.1739    0.0000 C   0  0  0  0  0  0  0  0  0  0  0  0
    2.1441    1.6973    0.0000 C   0  0  0  0  0  0  0  0  0  0  0  0
   -1.4721    8.3310    0.0000 C   0  0  0  0  0  0  0  0  0  0  0  0
   -2.9669    8.2064    0.0000 C   0  0  0  0  0  0  0  0  0  0  0  0
   -3.8222    9.4386    0.0000 O   0  0  0  0  0  0  0  0  0  0  0  0
   -3.6063    6.8495    0.0000 O   0  0  0  0  0  0  0  0  0  0  0  0
    0.0228    8.4557    0.0000 C   0  0  0  0  0  0  0  0  0  0  0  0
    1.5176    8.5803    0.0000 C   0  0  0  0  0  0  0  0  0  0  0  0
    3.0124    8.7050    0.0000 C   0  0  0  0  0  0  0  0  0  0  0  0
    3.6518   10.0618    0.0000 O   0  0  0  0  0  0  0  0  0  0  0  0
    3.8677    7.4727    0.0000 O   0  0  0  0  0  0  0  0  0  0  0  0
   -0.1019    9.9505    0.0000 C   0  0  0  0  0  0  0  0  0  0  0  0
    1.0169   10.9497    0.0000 O   0  0  0  0  0  0  0  0  0  0  0  0
   -1.4588   10.5900    0.0000 O   0  0  0  0  0  0  0  0  0  0  0  0
    0.1474    6.9609    0.0000 O   0  0  0  0  0  0  0  0  0  0  0  0
   -8.3669   -2.3179    0.0000 H   0  0  0  0  0  0  0  0  0  0  0  0
   -9.3872    0.5033    0.0000 H   0  0  0  0  0  0  0  0  0  0  0  0
  -10.2877   -1.4175    0.0000 H   0  0  0  0  0  0  0  0  0  0  0  0
   -7.9767    1.0134    0.0000 H   0  0  0  0  0  0  0  0  0  0  0  0
   -6.9563   -1.8077    0.0000 H   0  0  0  0  0  0  0  0  0  0  0  0
   -7.2691    1.8532    0.0000 H   0  0  0  0  0  0  0  0  0  0  0  0
   -4.3158    1.3262    0.0000 H   0  0  0  0  0  0  0  0  0  0  0  0
   -4.0523    2.8029    0.0000 H   0  0  0  0  0  0  0  0  0  0  0  0
   -7.0056    3.3298    0.0000 H   0  0  0  0  0  0  0  0  0  0  0  0
   -5.2655    4.5430    0.0000 H   0  0  0  0  0  0  0  0  0  0  0  0
   -5.8753   -2.0006    0.0000 H   0  0  0  0  0  0  0  0  0  0  0  0
   -3.9423    0.2936    0.0000 H   0  0  0  0  0  0  0  0  0  0  0  0
   -4.7282   -2.9671    0.0000 H   0  0  0  0  0  0  0  0  0  0  0  0
   -2.7952   -0.6729    0.0000 H   0  0  0  0  0  0  0  0  0  0  0  0
   -2.0877    0.1668    0.0000 H   0  0  0  0  0  0  0  0  0  0  0  0
    0.5515    1.2082    0.0000 H   0  0  0  0  0  0  0  0  0  0  0  0
    2.5007   -3.6993    0.0000 H   0  0  0  0  0  0  0  0  0  0  0  0
   -0.3204   -4.7196    0.0000 H   0  0  0  0  0  0  0  0  0  0  0  0
    5.3817    0.9203    0.0000 H   0  0  0  0  0  0  0  0  0  0  0  0
    7.5229    2.2612    0.0000 H   0  0  0  0  0  0  0  0  0  0  0  0
    9.8171    0.3282    0.0000 H   0  0  0  0  0  0  0  0  0  0  0  0
    9.2902   -2.6252    0.0000 H   0  0  0  0  0  0  0  0  0  0  0  0
    6.4690   -3.6455    0.0000 H   0  0  0  0  0  0  0  0  0  0  0  0
    6.0486    0.5807    0.0000 H   0  0  0  0  0  0  0  0  0  0  0  0
    6.3758    3.2277    0.0000 H   0  0  0  0  0  0  0  0  0  0  0  0
    4.0816    5.1608    0.0000 H   0  0  0  0  0  0  0  0  0  0  0  0
    1.2605    4.1405    0.0000 H   0  0  0  0  0  0  0  0  0  0  0  0
    0.6818    1.3629    0.0000 H   0  0  0  0  0  0  0  0  0  0  0  0
   -1.9547    9.7513    0.0000 H   0  0  0  0  0  0  0  0  0  0  0  0
   -1.3474    6.8362    0.0000 H   0  0  0  0  0  0  0  0  0  0  0  0
   -5.1012    6.7249    0.0000 H   0  0  0  0  0  0  0  0  0  0  0  0
    1.5761   10.0792    0.0000 H   0  0  0  0  0  0  0  0  0  0  0  0
    1.8235    7.1118    0.0000 H   0  0  0  0  0  0  0  0  0  0  0  0
    5.3625    7.5974    0.0000 H   0  0  0  0  0  0  0  0  0  0  0  0
   -1.5834   12.0848    0.0000 H   0  0  0  0  0  0  0  0  0  0  0  0
    1.4162    6.1608    0.0000 H   0  0  0  0  0  0  0  0  0  0  0  0
  1  2  1  0
  1 43  1  0
  1 44  1  0
  1 45  1  0
  2  3  1  0
  2 46  1  0
  2 47  1  0
  3  4  1  0
  3  6  1  0
  4  5  1  0
  4 48  1  0
  4 49  1  0
  5 50  1  0
  5 51  1  0
  5 52  1  0
  6  7  1  0
  6 53  1  0
  6 54  1  0
  7  8  1  0
  7 55  1  0
  7 56  1  0
  8  9  1  0
  9 10  2  0
  9 14  1  0
 10 11  1  0
 10 57  1  0
 11 12  2  0
 11 58  1  0
 12 13  1  0
 12 15  1  0
 13 14  2  0
 13 59  1  0
 14 60  1  0
 15 16  2  0
 15 24  1  0
 16 17  1  0
 16 23  1  0
 17 18  2  0
 17 22  1  0
 18 19  1  0
 18 61  1  0
 19 20  2  0
 19 62  1  0
 20 21  1  0
 20 63  1  0
 21 22  2  0
 21 64  1  0
 22 65  1  0
 24 25  2  0
 24 29  1  0
 25 26  1  0
 25 66  1  0
 26 27  2  0
 26 67  1  0
 27 28  1  0
 27 68  1  0
 28 29  2  0
 28 69  1  0
 29 70  1  0
 30 31  1  0
 30 34  1  0
 30 71  1  0
 30 72  1  0
 31 32  2  0
 31 33  1  0
 33 73  1  0
 34 35  1  0
 34 39  1  0
 34 42  1  0
 35 36  1  0
 35 74  1  0
 35 75  1  0
 36 37  2  0
 36 38  1  0
 38 76  1  0
 39 40  2  0
 39 41  1  0
 41 77  1  0
 42 78  1  0
M  END
$$$$

     RDKit          2D

 65 67  0  0  0  0  0  0  0  0999 V2000
   -4.8508   -5.0958    0.0000 C   0  0  0  0  0  0  0  0  0  0  0  0
   -4.7615   -3.5984    0.0000 C   0  0  0  0  0  0  0  0  0  0  0  0
   -4.6722   -2.1011    0.0000 N   0  0  0  0  0  0  0  0  0  0  0  0
   -3.3308   -1.4298    0.0000 C   0  0  0  0  0  0  0  0  0  0  0  0
   -2.0787   -2.2558    0.0000 C   0  0  0  0  0  0  0  0  0  0  0  0
   -0.7373   -1.5845    0.0000 C   0  0  0  0  0  0  0  0  0  0  0  0
   -0.6480   -0.0872    0.0000 C   0  0  0  0  0  0  0  0  0  0  0  0
   -1.9000    0.7388    0.0000 C   0  0  0  0  0  0  0  0  0  0  0  0
   -3.2414    0.0675    0.0000 C   0  0  0  0  0  0  0  0  0  0  0  0
   -4.4935    0.8936    0.0000 C   0  0  0  0  0  0  0  0  0  0  0  0
    0.6934    0.5841    0.0000 C   0  0  0  0  0  0  0  0  0  0  0  0
    1.9455   -0.2419    0.0000 C   0  0  0  0  0  0  0  0  0  0  0  0
    3.2869    0.4294    0.0000 C   0  0  0  0  0  0  0  0  0  0  0  0
    4.5390   -0.3966    0.0000 C   0  0  0  0  0  0  0  0  0  0  0  0
    4.4496   -1.8940    0.0000 C   0  0  0  0  0  0  0  0  0  0  0  0
    5.7017   -2.7200    0.0000 N   0  0  0  0  0  0  0  0  0  0  0  0
    7.0431   -2.0487    0.0000 C   0  0  0  0  0  0  0  0  0  0  0  0
    8.3845   -1.3774    0.0000 C   0  0  0  0  0  0  0  0  0  0  0  0
    3.1082   -2.5653    0.0000 C   0  0  0  0  0  0  0  0  0  0  0  0
    1.8562   -1.7392    0.0000 C   0  0  0  0  0  0  0  0  0  0  0  0
    0.5148   -2.4106    0.0000 O   0  0  0  0  0  0  0  0  0  0  0  0
    5.8804    0.2747    0.0000 C   0  0  0  0  0  0  0  0  0  0  0  0
    0.7828    2.0815    0.0000 C   0  0  0  0  0  0  0  0  0  0  0  0
    2.1242    2.7528    0.0000 C   0  0  0  0  0  0  0  0  0  0  0  0
    2.2135    4.2501    0.0000 C   0  0  0  0  0  0  0  0  0  0  0  0
    0.9614    5.0761    0.0000 C   0  0  0  0  0  0  0  0  0  0  0  0
   -0.3800    4.4048    0.0000 C   0  0  0  0  0  0  0  0  0  0  0  0
   -0.4693    2.9075    0.0000 C   0  0  0  0  0  0  0  0  0  0  0  0
   -1.8107    2.2362    0.0000 C   0  0  0  0  0  0  0  0  0  0  0  0
   -2.0493    1.4756    0.0000 O   0  0  0  0  0  0  0  0  0  0  0  0
   -3.0628    3.0622    0.0000 O   0  0  0  0  0  0  0  0  0  0  0  0
   -4.4042    2.3909    0.0000 C   0  0  0  0  0  0  0  0  0  0  0  0
   -5.7456    1.7196    0.0000 C   0  0  0  0  0  0  0  0  0  0  0  0
   -0.7500    7.5735    0.0000 Cl  0  0  0  0  0  0  0  0  0  0  0  0
   -6.3482   -5.0064    0.0000 H   0  0  0  0  0  0  0  0  0  0  0  0
   -3.3535   -5.1851    0.0000 H   0  0  0  0  0  0  0  0  0  0  0  0
   -4.9401   -6.5931    0.0000 H   0  0  0  0  0  0  0  0  0  0  0  0
   -6.2588   -3.5091    0.0000 H   0  0  0  0  0  0  0  0  0  0  0  0
   -3.2642   -3.6878    0.0000 H   0  0  0  0  0  0  0  0  0  0  0  0
   -5.9242   -1.2751    0.0000 H   0  0  0  0  0  0  0  0  0  0  0  0
   -2.1680   -3.7532    0.0000 H   0  0  0  0  0  0  0  0  0  0  0  0
   -2.1757    2.2133    0.0000 H   0  0  0  0  0  0  0  0  0  0  0  0
   -5.1607   -0.4498    0.0000 H   0  0  0  0  0  0  0  0  0  0  0  0
   -3.9950    2.3083    0.0000 H   0  0  0  0  0  0  0  0  0  0  0  0
   -5.9082    1.3921    0.0000 H   0  0  0  0  0  0  0  0  0  0  0  0
    3.5581    1.9047    0.0000 H   0  0  0  0  0  0  0  0  0  0  0  0
    7.7144   -3.3901    0.0000 H   0  0  0  0  0  0  0  0  0  0  0  0
    6.2133   -0.7991    0.0000 H   0  0  0  0  0  0  0  0  0  0  0  0
    9.0558   -2.7188    0.0000 H   0  0  0  0  0  0  0  0  0  0  0  0
    7.7132   -0.0360    0.0000 H   0  0  0  0  0  0  0  0  0  0  0  0
    9.7259   -0.7061    0.0000 H   0  0  0  0  0  0  0  0  0  0  0  0
    3.0189   -4.0626    0.0000 H   0  0  0  0  0  0  0  0  0  0  0  0
    6.3832   -1.1386    0.0000 H   0  0  0  0  0  0  0  0  0  0  0  0
    5.2091    1.6161    0.0000 H   0  0  0  0  0  0  0  0  0  0  0  0
    7.2218    0.9460    0.0000 H   0  0  0  0  0  0  0  0  0  0  0  0
    3.4676    2.0855    0.0000 H   0  0  0  0  0  0  0  0  0  0  0  0
    3.5549    4.9214    0.0000 H   0  0  0  0  0  0  0  0  0  0  0  0
    1.0508    6.5735    0.0000 H   0  0  0  0  0  0  0  0  0  0  0  0
   -1.6320    5.2309    0.0000 H   0  0  0  0  0  0  0  0  0  0  0  0
   -5.0755    3.7323    0.0000 H   0  0  0  0  0  0  0  0  0  0  0  0
   -3.4282    1.2518    0.0000 H   0  0  0  0  0  0  0  0  0  0  0  0
   -6.4169    3.0610    0.0000 H   0  0  0  0  0  0  0  0  0  0  0  0
   -5.5997    0.2267    0.0000 H   0  0  0  0  0  0  0  0  0  0  0  0
   -7.0870    1.0483    0.0000 H   0  0  0  0  0  0  0  0  0  0  0  0
    0.7500    7.5735    0.0000 H   0  0  0  0  0  0  0  0  0  0  0  0
  1  2  1  0
  1 35  1  0
  1 36  1  0
  1 37  1  0
  2  3  1  0
  2 38  1  0
  2 39  1  0
  3  4  1  0
  3 40  1  0
  4  5  2  0
  4  9  1  0
  5  6  1  0
  5 41  1  0
  6  7  2  0
  6 21  1  0
  7  8  1  0
  7 11  1  0
  8  9  2  0
  8 42  1  0
  9 10  1  0
 10 43  1  0
 10 44  1  0
 10 45  1  0
 11 12  2  0
 11 23  1  0
 12 13  1  0
 12 20  1  0
 13 14  2  0
 13 46  1  0
 14 15  1  0
 14 22  1  0
 15 16  2  0
 15 19  1  0
 16 17  1  0
 17 18  1  0
 17 47  1  0
 17 48  1  0
 18 49  1  0
 18 50  1  0
 18 51  1  0
 19 20  2  0
 19 52  1  0
 20 21  1  0
 22 53  1  0
 22 54  1  0
 22 55  1  0
 23 24  2  0
 23 28  1  0
 24 25  1  0
 24 56  1  0
 25 26  2  0
 25 57  1  0
 26 27  1  0
 26 58  1  0
 27 28  2  0
 27 59  1  0
 28 29  1  0
 29 30  2  0
 29 31  1  0
 31 32  1  0
 32 33  1  0
 32 60  1  0
 32 61  1  0
 33 62  1  0
 33 63  1  0
 33 64  1  0
 34 65  1  0
M  END
$$$$

     RDKit          2D

 53 56  0  0  1  0  0  0  0  0999 V2000
   -4.4735    4.7652    0.0000 C   0  0  0  0  0  0  0  0  0  0  0  0
   -3.5673    3.5699    0.0000 O   0  0  0  0  0  0  0  0  0  0  0  0
   -4.1493    2.1874    0.0000 C   0  0  0  0  0  0  0  0  0  0  0  0
   -4.9465    2.1851    0.0000 O   0  0  0  0  0  0  0  0  0  0  0  0
   -3.2430    0.9921    0.0000 C   0  0  0  0  0  0  0  0  0  0  0  0
   -4.7036    0.6504    0.0000 C   0  0  0  0  0  0  0  0  0  0  0  0
   -4.8299   -0.8443    0.0000 C   0  0  0  0  0  0  0  0  0  0  0  0
   -3.4474   -1.4263    0.0000 C   0  0  0  0  0  0  0  0  0  0  0  0
   -2.4667   -0.2914    0.0000 C   0  0  0  0  0  0  0  0  0  0  0  0
   -0.9670   -0.2607    0.0000 N   0  0  0  0  0  0  0  0  0  0  0  0
   -0.2437    1.0533    0.0000 N   0  0  0  0  0  0  0  0  0  0  0  0
   -1.0200    2.3368    0.0000 C   0  0  0  0  0  0  0  0  0  0  0  0
   -2.5197    2.3062    0.0000 O   0  0  0  0  0  0  0  0  0  0  0  0
    1.2560    1.0839    0.0000 C   0  0  0  0  0  0  0  0  0  0  0  0
    1.9794    2.3980    0.0000 O   0  0  0  0  0  0  0  0  0  0  0  0
    2.0324   -0.1995    0.0000 N   0  0  0  0  0  0  0  0  0  0  0  0
    3.5320   -0.1689    0.0000 C   0  0  0  0  0  0  0  0  0  0  0  0
    4.3084   -1.4524    0.0000 C   0  0  0  0  0  0  0  0  0  0  0  0
    5.8081   -1.4218    0.0000 C   0  0  0  0  0  0  0  0  0  0  0  0
    6.5314   -0.1077    0.0000 C   0  0  0  0  0  0  0  0  0  0  0  0
    5.7551    1.1757    0.0000 C   0  0  0  0  0  0  0  0  0  0  0  0
    4.2554    1.1451    0.0000 C   0  0  0  0  0  0  0  0  0  0  0  0
    8.0311   -0.0771    0.0000 O   0  0  0  0  0  0  0  0  0  0  0  0
    8.7545    1.2369    0.0000 C   0  0  0  0  0  0  0  0  0  0  0  0
    9.4778    2.5510    0.0000 F   0  0  0  0  0  0  0  0  0  0  0  0
   10.0685    0.5136    0.0000 F   0  0  0  0  0  0  0  0  0  0  0  0
    7.4404    1.9603    0.0000 F   0  0  0  0  0  0  0  0  0  0  0  0
    1.3090   -1.5136    0.0000 C   0  0  0  0  0  0  0  0  0  0  0  0
   -0.1907   -1.5442    0.0000 O   0  0  0  0  0  0  0  0  0  0  0  0
    2.0854   -2.7971    0.0000 O   0  0  0  0  0  0  0  0  0  0  0  0
    1.3620   -4.1112    0.0000 C   0  0  0  0  0  0  0  0  0  0  0  0
   -3.2603   -2.9146    0.0000 C   0  0  0  0  0  0  0  0  0  0  0  0
   -4.4555   -3.8208    0.0000 C   0  0  0  0  0  0  0  0  0  0  0  0
   -5.8380   -3.2388    0.0000 C   0  0  0  0  0  0  0  0  0  0  0  0
   -6.0252   -1.7505    0.0000 C   0  0  0  0  0  0  0  0  0  0  0  0
   -7.0333   -4.1451    0.0000 Cl  0  0  0  0  0  0  0  0  0  0  0  0
   -3.2782    5.6714    0.0000 H   0  0  0  0  0  0  0  0  0  0  0  0
   -5.6688    3.8589    0.0000 H   0  0  0  0  0  0  0  0  0  0  0  0
   -5.3798    5.9605    0.0000 H   0  0  0  0  0  0  0  0  0  0  0  0
   -5.0800    1.3531    0.0000 H   0  0  0  0  0  0  0  0  0  0  0  0
   -6.2033    0.6198    0.0000 H   0  0  0  0  0  0  0  0  0  0  0  0
   -1.3106    3.8084    0.0000 H   0  0  0  0  0  0  0  0  0  0  0  0
    0.3788    2.8785    0.0000 H   0  0  0  0  0  0  0  0  0  0  0  0
    3.5851   -2.7665    0.0000 H   0  0  0  0  0  0  0  0  0  0  0  0
    6.5844   -2.7053    0.0000 H   0  0  0  0  0  0  0  0  0  0  0  0
    6.4784    2.4898    0.0000 H   0  0  0  0  0  0  0  0  0  0  0  0
    3.4790    2.4286    0.0000 H   0  0  0  0  0  0  0  0  0  0  0  0
    2.6761   -4.8345    0.0000 H   0  0  0  0  0  0  0  0  0  0  0  0
    0.0480   -3.3878    0.0000 H   0  0  0  0  0  0  0  0  0  0  0  0
    0.6387   -5.4252    0.0000 H   0  0  0  0  0  0  0  0  0  0  0  0
   -1.8778   -3.4966    0.0000 H   0  0  0  0  0  0  0  0  0  0  0  0
   -4.2683   -5.3091    0.0000 H   0  0  0  0  0  0  0  0  0  0  0  0
   -7.4077   -1.1685    0.0000 H   0  0  0  0  0  0  0  0  0  0  0  0
  1  2  1  0
  1 37  1  0
  1 38  1  0
  1 39  1  0
  2  3  1  0
  3  4  2  0
  5  3  1  1
  5  6  1  0
  5  9  1  0
  5 13  1  0
  6  7  1  0
  6 40  1  0
  6 41  1  0
  7  8  2  0
  7 35  1  0
  8  9  1  0
  8 32  1  0
  9 10  2  0
 10 11  1  0
 11 12  1  0
 11 14  1  0
 12 13  1  0
 12 42  1  0
 12 43  1  0
 14 15  2  0
 14 16  1  0
 16 17  1  0
 16 28  1  0
 17 18  2  0
 17 22  1  0
 18 19  1  0
 18 44  1  0
 19 20  2  0
 19 45  1  0
 20 21  1  0
 20 23  1  0
 21 22  2  0
 21 46  1  0
 22 47  1  0
 23 24  1  0
 24 25  1  0
 24 26  1  0
 24 27  1  0
 28 29  2  0
 28 30  1  0
 30 31  1  0
 31 48  1  0
 31 49  1  0
 31 50  1  0
 32 33  2  0
 32 51  1  0
 33 34  1  0
 33 52  1  0
 34 35  2  0
 34 36  1  0
 35 53  1  0
M  END
$$$$

     RDKit          2D

 32 31  0  0  0  0  0  0  0  0999 V2000
    0.9871   -2.1216    0.0000 C   0  0  0  0  0  0  0  0  0  0  0  0
    2.1034   -1.1198    0.0000 C   0  0  0  0  0  0  0  0  0  0  0  0
    3.1053   -2.2361    0.0000 C   0  0  0  0  0  0  0  0  0  0  0  0
    1.1016   -0.0034    0.0000 N   0  0  0  0  0  0  0  0  0  0  0  0
    1.5674    1.4224    0.0000 C   0  0  0  0  0  0  0  0  0  0  0  0
    0.1416    1.8883    0.0000 C   0  0  0  0  0  0  0  0  0  0  0  0
    2.0333    2.8483    0.0000 C   0  0  0  0  0  0  0  0  0  0  0  0
   -0.3662   -0.3129    0.0000 C   0  0  0  0  0  0  0  0  0  0  0  0
   -0.6413   -1.1548    0.0000 O   0  0  0  0  0  0  0  0  0  0  0  0
   -1.3680    0.8035    0.0000 S   0  0  0  0  0  0  0  0  0  0  0  0
   -2.8358    0.4940    0.0000 C   0  0  0  0  0  0  0  0  0  0  0  0
   -4.3035    0.1845    0.0000 C   0  0  0  0  0  0  0  0  0  0  0  0
   -4.7694   -1.2413    0.0000 C   0  0  0  0  0  0  0  0  0  0  0  0
   -6.2371   -1.5508    0.0000 Cl  0  0  0  0  0  0  0  0  0  0  0  0
   -5.3054    1.3009    0.0000 Cl  0  0  0  0  0  0  0  0  0  0  0  0
    1.4939   -2.8480    0.0000 H   0  0  0  0  0  0  0  0  0  0  0  0
    0.2536   -1.6252    0.0000 H   0  0  0  0  0  0  0  0  0  0  0  0
   -0.1293   -3.1235    0.0000 H   0  0  0  0  0  0  0  0  0  0  0  0
    3.2198   -0.1179    0.0000 H   0  0  0  0  0  0  0  0  0  0  0  0
    2.5231   -2.9036    0.0000 H   0  0  0  0  0  0  0  0  0  0  0  0
    4.2217   -1.2342    0.0000 H   0  0  0  0  0  0  0  0  0  0  0  0
    4.1072   -3.3525    0.0000 H   0  0  0  0  0  0  0  0  0  0  0  0
    2.9932    0.9566    0.0000 H   0  0  0  0  0  0  0  0  0  0  0  0
    0.3753    3.0806    0.0000 H   0  0  0  0  0  0  0  0  0  0  0  0
   -0.4394    0.9619    0.0000 H   0  0  0  0  0  0  0  0  0  0  0  0
   -1.2842    2.3541    0.0000 H   0  0  0  0  0  0  0  0  0  0  0  0
    0.9330    3.3636    0.0000 H   0  0  0  0  0  0  0  0  0  0  0  0
    3.4591    2.3824    0.0000 H   0  0  0  0  0  0  0  0  0  0  0  0
    2.4991    4.2741    0.0000 H   0  0  0  0  0  0  0  0  0  0  0  0
   -2.5263   -0.9737    0.0000 H   0  0  0  0  0  0  0  0  0  0  0  0
   -3.1452    1.9617    0.0000 H   0  0  0  0  0  0  0  0  0  0  0  0
   -3.7675   -2.3576    0.0000 H   0  0  0  0  0  0  0  0  0  0  0  0
  1  2  1  0
  1 16  1  0
  1 17  1  0
  1 18  1  0
  2  3  1  0
  2  4  1  0
  2 19  1  0
  3 20  1  0
  3 21  1  0
  3 22  1  0
  4  5  1  0
  4  8  1  0
  5  6  1  0
  5  7  1  0
  5 23  1  0
  6 24  1  0
  6 25  1  0
  6 26  1  0
  7 27  1  0
  7 28  1  0
  7 29  1  0
  8  9  2  0
  8 10  1  0
 10 11  1  0
 11 12  1  0
 11 30  1  0
 11 31  1  0
 12 13  2  0
 12 15  1  0
 13 14  1  0
 13 32  1  0
M  END
$$$$

     RDKit          2D

 38 39  0  0  0  0  0  0  0  0999 V2000
   -5.7441    1.3134    0.0000 C   0  0  0  0  0  0  0  0  0  0  0  0
   -4.2449    1.3618    0.0000 C   0  0  0  0  0  0  0  0  0  0  0  0
   -2.7457    1.4101    0.0000 C   0  0  0  0  0  0  0  0  0  0  0  0
   -1.2464    1.4584    0.0000 O   0  0  0  0  0  0  0  0  0  0  0  0
   -0.4550    0.1842    0.0000 C   0  0  0  0  0  0  0  0  0  0  0  0
    0.3365   -1.0899    0.0000 C   0  0  0  0  0  0  0  0  0  0  0  0
    1.8357   -1.0416    0.0000 N   0  0  0  0  0  0  0  0  0  0  0  0
    2.5435    0.2809    0.0000 C   0  0  0  0  0  0  0  0  0  0  0  0
    4.0427    0.3292    0.0000 C   0  0  0  0  0  0  0  0  0  0  0  0
    4.7504    1.6518    0.0000 C   0  0  0  0  0  0  0  0  0  0  0  0
    3.9590    2.9260    0.0000 C   0  0  0  0  0  0  0  0  0  0  0  0
    2.4598    2.8776    0.0000 C   0  0  0  0  0  0  0  0  0  0  0  0
    1.7520    1.5551    0.0000 C   0  0  0  0  0  0  0  0  0  0  0  0
    4.6667    4.2485    0.0000 Cl  0  0  0  0  0  0  0  0  0  0  0  0
    4.8342   -0.9449    0.0000 C   0  0  0  0  0  0  0  0  0  0  0  0
    5.6256   -2.2191    0.0000 F   0  0  0  0  0  0  0  0  0  0  0  0
    3.5600   -1.7364    0.0000 F   0  0  0  0  0  0  0  0  0  0  0  0
    6.1084   -0.1535    0.0000 F   0  0  0  0  0  0  0  0  0  0  0  0
   -0.3713   -2.4125    0.0000 N   0  0  0  0  0  0  0  0  0  0  0  0
    0.2827   -3.7624    0.0000 C   0  0  0  0  0  0  0  0  0  0  0  0
   -0.7991   -4.8015    0.0000 C   0  0  0  0  0  0  0  0  0  0  0  0
   -2.1216   -4.0938    0.0000 N   0  0  0  0  0  0  0  0  0  0  0  0
   -1.8572   -2.6173    0.0000 C   0  0  0  0  0  0  0  0  0  0  0  0
   -5.6958   -0.1858    0.0000 H   0  0  0  0  0  0  0  0  0  0  0  0
   -5.7924    2.8127    0.0000 H   0  0  0  0  0  0  0  0  0  0  0  0
   -7.2433    1.2651    0.0000 H   0  0  0  0  0  0  0  0  0  0  0  0
   -4.2932    2.8610    0.0000 H   0  0  0  0  0  0  0  0  0  0  0  0
   -4.1965   -0.1374    0.0000 H   0  0  0  0  0  0  0  0  0  0  0  0
   -2.7940    2.9093    0.0000 H   0  0  0  0  0  0  0  0  0  0  0  0
   -2.6973   -0.0891    0.0000 H   0  0  0  0  0  0  0  0  0  0  0  0
    0.3115    0.8016    0.0000 H   0  0  0  0  0  0  0  0  0  0  0  0
   -1.7292   -0.6072    0.0000 H   0  0  0  0  0  0  0  0  0  0  0  0
    6.2497    1.7001    0.0000 H   0  0  0  0  0  0  0  0  0  0  0  0
    1.6683    4.1518    0.0000 H   0  0  0  0  0  0  0  0  0  0  0  0
    0.7718    1.6435    0.0000 H   0  0  0  0  0  0  0  0  0  0  0  0
    1.7592   -4.0269    0.0000 H   0  0  0  0  0  0  0  0  0  0  0  0
   -0.5943   -6.2875    0.0000 H   0  0  0  0  0  0  0  0  0  0  0  0
   -2.8963   -1.5355    0.0000 H   0  0  0  0  0  0  0  0  0  0  0  0
  1  2  1  0
  1 24  1  0
  1 25  1  0
  1 26  1  0
  2  3  1  0
  2 27  1  0
  2 28  1  0
  3  4  1  0
  3 29  1  0
  3 30  1  0
  4  5  1  0
  5  6  1  0
  5 31  1  0
  5 32  1  0
  6  7  2  0
  6 19  1  0
  7  8  1  0
  8  9  2  0
  8 13  1  0
  9 10  1  0
  9 15  1  0
 10 11  2  0
 10 33  1  0
 11 12  1  0
 11 14  1  0
 12 13  2  0
 12 34  1  0
 13 35  1  0
 15 16  1  0
 15 17  1  0
 15 18  1  0
 19 20  1  0
 19 23  1  0
 20 21  2  0
 20 36  1  0
 21 22  1  0
 21 37  1  0
 22 23  2  0
 23 38  1  0
M  END
$$$$

     RDKit          2D

 53 54  0  0  1  0  0  0  0  0999 V2000
   -3.8494    2.2971    0.0000 B   0  0  0  0  0  0  0  0  0  0  0  0
   -2.7203    1.3096    0.0000 C   0  0  0  0  0  0  0  0  0  0  0  0
   -3.7078    0.1805    0.0000 C   0  0  0  0  0  0  0  0  0  0  0  0
   -4.6953   -0.9486    0.0000 C   0  0  0  0  0  0  0  0  0  0  0  0
   -3.5662   -1.9361    0.0000 C   0  0  0  0  0  0  0  0  0  0  0  0
   -5.6828   -2.0777    0.0000 C   0  0  0  0  0  0  0  0  0  0  0  0
   -1.7328    2.4387    0.0000 N   0  0  0  0  0  0  0  0  0  0  0  0
   -0.2613    2.1481    0.0000 C   0  0  0  0  0  0  0  0  0  0  0  0
    0.5812    3.3891    0.0000 O   0  0  0  0  0  0  0  0  0  0  0  0
    0.2228    0.7284    0.0000 C   0  0  0  0  0  0  0  0  0  0  0  0
    1.6426    1.2124    0.0000 C   0  0  0  0  0  0  0  0  0  0  0  0
    3.0623    1.6965    0.0000 C   0  0  0  0  0  0  0  0  0  0  0  0
    4.1914    0.7091    0.0000 C   0  0  0  0  0  0  0  0  0  0  0  0
    5.6111    1.1932    0.0000 C   0  0  0  0  0  0  0  0  0  0  0  0
    5.9018    2.6647    0.0000 C   0  0  0  0  0  0  0  0  0  0  0  0
    4.7727    3.6522    0.0000 C   0  0  0  0  0  0  0  0  0  0  0  0
    3.3529    3.1681    0.0000 C   0  0  0  0  0  0  0  0  0  0  0  0
    0.7069   -0.6914    0.0000 N   0  0  0  0  0  0  0  0  0  0  0  0
    2.1785   -0.9820    0.0000 C   0  0  0  0  0  0  0  0  0  0  0  0
    2.8984   -0.1589    0.0000 O   0  0  0  0  0  0  0  0  0  0  0  0
    2.6626   -2.4018    0.0000 C   0  0  0  0  0  0  0  0  0  0  0  0
    1.6751   -3.5309    0.0000 N   0  0  0  0  0  0  0  0  0  0  0  0
    2.1592   -4.9506    0.0000 C   0  0  0  0  0  0  0  0  0  0  0  0
    3.6308   -5.2412    0.0000 C   0  0  0  0  0  0  0  0  0  0  0  0
    4.6183   -4.1121    0.0000 N   0  0  0  0  0  0  0  0  0  0  0  0
    4.1342   -2.6924    0.0000 C   0  0  0  0  0  0  0  0  0  0  0  0
   -5.2692    1.8130    0.0000 O   0  0  0  0  0  0  0  0  0  0  0  0
   -3.5588    3.7687    0.0000 O   0  0  0  0  0  0  0  0  0  0  0  0
   -1.9101    0.4042    0.0000 H   0  0  0  0  0  0  0  0  0  0  0  0
   -2.9750   -0.3170    0.0000 H   0  0  0  0  0  0  0  0  0  0  0  0
   -5.0423    0.8654    0.0000 H   0  0  0  0  0  0  0  0  0  0  0  0
   -5.8244    0.0389    0.0000 H   0  0  0  0  0  0  0  0  0  0  0  0
   -4.0637   -2.6689    0.0000 H   0  0  0  0  0  0  0  0  0  0  0  0
   -2.9062   -1.3454    0.0000 H   0  0  0  0  0  0  0  0  0  0  0  0
   -2.4371   -2.9236    0.0000 H   0  0  0  0  0  0  0  0  0  0  0  0
   -5.0921   -2.7377    0.0000 H   0  0  0  0  0  0  0  0  0  0  0  0
   -6.8119   -1.0902    0.0000 H   0  0  0  0  0  0  0  0  0  0  0  0
   -6.6702   -3.2068    0.0000 H   0  0  0  0  0  0  0  0  0  0  0  0
   -2.2169    3.8585    0.0000 H   0  0  0  0  0  0  0  0  0  0  0  0
   -0.8708    0.1990    0.0000 H   0  0  0  0  0  0  0  0  0  0  0  0
    2.2354    0.2936    0.0000 H   0  0  0  0  0  0  0  0  0  0  0  0
    1.3351    2.6806    0.0000 H   0  0  0  0  0  0  0  0  0  0  0  0
    3.9008   -0.7625    0.0000 H   0  0  0  0  0  0  0  0  0  0  0  0
    6.7402    0.2057    0.0000 H   0  0  0  0  0  0  0  0  0  0  0  0
    7.3215    3.1488    0.0000 H   0  0  0  0  0  0  0  0  0  0  0  0
    5.0633    5.1238    0.0000 H   0  0  0  0  0  0  0  0  0  0  0  0
    2.2238    4.1556    0.0000 H   0  0  0  0  0  0  0  0  0  0  0  0
   -0.2806   -1.8205    0.0000 H   0  0  0  0  0  0  0  0  0  0  0  0
    1.1717   -6.0797    0.0000 H   0  0  0  0  0  0  0  0  0  0  0  0
    4.1149   -6.6610    0.0000 H   0  0  0  0  0  0  0  0  0  0  0  0
    5.1216   -1.5633    0.0000 H   0  0  0  0  0  0  0  0  0  0  0  0
   -6.3983    2.8005    0.0000 H   0  0  0  0  0  0  0  0  0  0  0  0
   -4.6879    4.7562    0.0000 H   0  0  0  0  0  0  0  0  0  0  0  0
  1 27  1  0
  1 28  1  0
  2  7  1  0
  2 29  1  6
  2  3  1  0
  2  1  1  0
  3  4  1  0
  3 30  1  0
  3 31  1  0
  4  5  1  0
  4  6  1  0
  4 32  1  0
  5 33  1  0
  5 34  1  0
  5 35  1  0
  6 36  1  0
  6 37  1  0
  6 38  1  0
  7  8  1  0
  7 39  1  0
  8  9  2  0
 10 18  1  0
 10 40  1  1
 10 11  1  0
 10  8  1  0
 11 12  1  0
 11 41  1  0
 11 42  1  0
 12 13  2  0
 12 17  1  0
 13 14  1  0
 13 43  1  0
 14 15  2  0
 14 44  1  0
 15 16  1  0
 15 45  1  0
 16 17  2  0
 16 46  1  0
 17 47  1  0
 18 19  1  0
 18 48  1  0
 19 20  2  0
 19 21  1  0
 21 22  2  0
 21 26  1  0
 22 23  1  0
 23 24  2  0
 23 49  1  0
 24 25  1  0
 24 50  1  0
 25 26  2  0
 26 51  1  0
 27 52  1  0
 28 53  1  0
M  END
$$$$

     RDKit          2D

 27 29  0  0  0  0  0  0  0  0999 V2000
   -2.5981    1.6667    0.0000 C   0  0  0  0  0  0  0  0  0  0  0  0
   -3.8971    0.9167    0.0000 C   0  0  0  0  0  0  0  0  0  0  0  0
   -3.8971   -0.5833    0.0000 C   0  0  0  0  0  0  0  0  0  0  0  0
   -2.5981   -1.3333    0.0000 C   0  0  0  0  0  0  0  0  0  0  0  0
   -1.2990   -0.5833    0.0000 C   0  0  0  0  0  0  0  0  0  0  0  0
    0.0000   -1.3333    0.0000 N   0  0  0  0  0  0  0  0  0  0  0  0
    1.2990   -0.5833    0.0000 C   0  0  0  0  0  0  0  0  0  0  0  0
    1.2990    0.9167    0.0000 C   0  0  0  0  0  0  0  0  0  0  0  0
    2.5981    1.6667    0.0000 C   0  0  0  0  0  0  0  0  0  0  0  0
    3.8971    0.9167    0.0000 C   0  0  0  0  0  0  0  0  0  0  0  0
    3.8971   -0.5833    0.0000 C   0  0  0  0  0  0  0  0  0  0  0  0
    2.5981   -1.3333    0.0000 C   0  0  0  0  0  0  0  0  0  0  0  0
    5.1962   -1.3333    0.0000 N   0  0  0  0  0  0  0  0  0  0  0  0
    0.0000    1.6667    0.0000 C   0  0  0  0  0  0  0  0  0  0  0  0
   -1.2990    0.9167    0.0000 C   0  0  0  0  0  0  0  0  0  0  0  0
   -5.1962   -1.3333    0.0000 N   0  0  0  0  0  0  0  0  0  0  0  0
   -2.5981    3.1667    0.0000 H   0  0  0  0  0  0  0  0  0  0  0  0
   -5.1962    1.6667    0.0000 H   0  0  0  0  0  0  0  0  0  0  0  0
   -2.5981   -2.8333    0.0000 H   0  0  0  0  0  0  0  0  0  0  0  0
    2.5981    3.1667    0.0000 H   0  0  0  0  0  0  0  0  0  0  0  0
    5.1962    1.6667    0.0000 H   0  0  0  0  0  0  0  0  0  0  0  0
    2.5981   -2.8333    0.0000 H   0  0  0  0  0  0  0  0  0  0  0  0
    5.1962   -2.8333    0.0000 H   0  0  0  0  0  0  0  0  0  0  0  0
    6.4952   -0.5833    0.0000 H   0  0  0  0  0  0  0  0  0  0  0  0
    0.0000    3.1667    0.0000 H   0  0  0  0  0  0  0  0  0  0  0  0
   -5.1962   -2.8333    0.0000 H   0  0  0  0  0  0  0  0  0  0  0  0
   -6.4952   -0.5833    0.0000 H   0  0  0  0  0  0  0  0  0  0  0  0
  1  2  2  0
  1 15  1  0
  1 17  1  0
  2  3  1  0
  2 18  1  0
  3  4  2  0
  3 16  1  0
  4  5  1  0
  4 19  1  0
  5  6  1  0
  5 15  2  0
  6  7  2  0
  7  8  1  0
  7 12  1  0
  8  9  1  0
  8 14  2  0
  9 10  2  0
  9 20  1  0
 10 11  1  0
 10 21  1  0
 11 12  2  0
 11 13  1  0
 12 22  1  0
 13 23  1  0
 13 24  1  0
 14 15  1  0
 14 25  1  0
 16 26  1  0
 16 27  1  0
M  END
$$$$

     RDKit          2D

 51 49  0  0  0  0  0  0  0  0999 V2000
   10.7537   -0.0233    0.0000 C   0  0  0  0  0  0  0  0  0  0  0  0
    9.2537   -0.0181    0.0000 C   0  0  0  0  0  0  0  0  0  0  0  0
    7.7537   -0.0130    0.0000 C   0  0  0  0  0  0  0  0  0  0  0  0
    6.2537   -0.0078    0.0000 C   0  0  0  0  0  0  0  0  0  0  0  0
    4.7537   -0.0027    0.0000 C   0  0  0  0  0  0  0  0  0  0  0  0
    3.2537    0.0025    0.0000 C   0  0  0  0  0  0  0  0  0  0  0  0
    1.7537    0.0077    0.0000 C   0  0  0  0  0  0  0  0  0  0  0  0
    0.2537    0.0128    0.0000 C   0  0  0  0  0  0  0  0  0  0  0  0
   -1.2463    0.0180    0.0000 C   0  0  0  0  0  0  0  0  0  0  0  0
   -2.7462    0.0231    0.0000 C   0  0  0  0  0  0  0  0  0  0  0  0
   -4.2462    0.0283    0.0000 C   0  0  0  0  0  0  0  0  0  0  0  0
   -5.7462    0.0335    0.0000 C   0  0  0  0  0  0  0  0  0  0  0  0
   -7.2462    0.0386    0.0000 N   0  0  0  0  0  0  0  0  0  0  0  0
   -7.2514   -1.4614    0.0000 C   0  0  0  0  0  0  0  0  0  0  0  0
   -7.2411    1.5386    0.0000 C   0  0  0  0  0  0  0  0  0  0  0  0
   -8.7462    0.0438    0.0000 C   0  0  0  0  0  0  0  0  0  0  0  0
    0.0000    4.0386    0.0000 Cl  0  0  0  0  0  0  0  0  0  0  0  0
   10.7485   -1.5233    0.0000 H   0  0  0  0  0  0  0  0  0  0  0  0
   10.7588    1.4767    0.0000 H   0  0  0  0  0  0  0  0  0  0  0  0
   12.2537   -0.0285    0.0000 H   0  0  0  0  0  0  0  0  0  0  0  0
    9.2485   -1.5181    0.0000 H   0  0  0  0  0  0  0  0  0  0  0  0
    9.2588    1.4819    0.0000 H   0  0  0  0  0  0  0  0  0  0  0  0
    7.7589    1.4870    0.0000 H   0  0  0  0  0  0  0  0  0  0  0  0
    7.7485   -1.5130    0.0000 H   0  0  0  0  0  0  0  0  0  0  0  0
    6.2485   -1.5078    0.0000 H   0  0  0  0  0  0  0  0  0  0  0  0
    6.2589    1.4922    0.0000 H   0  0  0  0  0  0  0  0  0  0  0  0
    4.7589    1.4973    0.0000 H   0  0  0  0  0  0  0  0  0  0  0  0
    4.7486   -1.5027    0.0000 H   0  0  0  0  0  0  0  0  0  0  0  0
    3.2486   -1.4975    0.0000 H   0  0  0  0  0  0  0  0  0  0  0  0
    3.2589    1.5025    0.0000 H   0  0  0  0  0  0  0  0  0  0  0  0
    1.7589    1.5077    0.0000 H   0  0  0  0  0  0  0  0  0  0  0  0
    1.7486   -1.4923    0.0000 H   0  0  0  0  0  0  0  0  0  0  0  0
    0.2486   -1.4872    0.0000 H   0  0  0  0  0  0  0  0  0  0  0  0
    0.2589    1.5128    0.0000 H   0  0  0  0  0  0  0  0  0  0  0  0
   -1.2411    1.5180    0.0000 H   0  0  0  0  0  0  0  0  0  0  0  0
   -1.2514   -1.4820    0.0000 H   0  0  0  0  0  0  0  0  0  0  0  0
   -2.7514   -1.4769    0.0000 H   0  0  0  0  0  0  0  0  0  0  0  0
   -2.7411    1.5231    0.0000 H   0  0  0  0  0  0  0  0  0  0  0  0
   -4.2411    1.5283    0.0000 H   0  0  0  0  0  0  0  0  0  0  0  0
   -4.2514   -1.4717    0.0000 H   0  0  0  0  0  0  0  0  0  0  0  0
   -5.6413   -0.8460    0.0000 H   0  0  0  0  0  0  0  0  0  0  0  0
   -5.6352    0.9122    0.0000 H   0  0  0  0  0  0  0  0  0  0  0  0
   -8.7408   -1.6391    0.0000 H   0  0  0  0  0  0  0  0  0  0  0  0
   -6.3726   -1.5724    0.0000 H   0  0  0  0  0  0  0  0  0  0  0  0
   -7.2565   -2.9614    0.0000 H   0  0  0  0  0  0  0  0  0  0  0  0
   -8.1198    1.6496    0.0000 H   0  0  0  0  0  0  0  0  0  0  0  0
   -6.3616    1.6435    0.0000 H   0  0  0  0  0  0  0  0  0  0  0  0
   -7.2359    3.0386    0.0000 H   0  0  0  0  0  0  0  0  0  0  0  0
   -8.8512    0.9233    0.0000 H   0  0  0  0  0  0  0  0  0  0  0  0
   -8.9342   -1.4444    0.0000 H   0  0  0  0  0  0  0  0  0  0  0  0
  -10.2462    0.0489    0.0000 H   0  0  0  0  0  0  0  0  0  0  0  0
  1  2  1  0
  1 18  1  0
  1 19  1  0
  1 20  1  0
  2  3  1  0
  2 21  1  0
  2 22  1  0
  3  4  1  0
  3 23  1  0
  3 24  1  0
  4  5  1  0
  4 25  1  0
  4 26  1  0
  5  6  1  0
  5 27  1  0
  5 28  1  0
  6  7  1  0
  6 29  1  0
  6 30  1  0
  7  8  1  0
  7 31  1  0
  7 32  1  0
  8  9  1  0
  8 33  1  0
  8 34  1  0
  9 10  1  0
  9 35  1  0
  9 36  1  0
 10 11  1  0
 10 37  1  0
 10 38  1  0
 11 12  1  0
 11 39  1  0
 11 40  1  0
 12 13  1  0
 12 41  1  0
 12 42  1  0
 13 14  1  0
 13 15  1  0
 13 16  1  0
 14 43  1  0
 14 44  1  0
 14 45  1  0
 15 46  1  0
 15 47  1  0
 15 48  1  0
 16 49  1  0
 16 50  1  0
 16 51  1  0
M  CHG  2  13   1  17  -1
M  END
$$$$

     RDKit          2D

 38 40  0  0  0  0  0  0  0  0999 V2000
   -5.1962    2.1711    0.0000 C   0  0  0  0  0  0  0  0  0  0  0  0
   -5.1962    0.6711    0.0000 N   0  0  0  0  0  0  0  0  0  0  0  0
   -6.4952   -0.0789    0.0000 C   0  0  0  0  0  0  0  0  0  0  0  0
   -3.8971   -0.0789    0.0000 C   0  0  0  0  0  0  0  0  0  0  0  0
   -2.5981    0.6711    0.0000 C   0  0  0  0  0  0  0  0  0  0  0  0
   -1.2990   -0.0789    0.0000 C   0  0  0  0  0  0  0  0  0  0  0  0
   -1.2990   -1.5789    0.0000 C   0  0  0  0  0  0  0  0  0  0  0  0
   -2.5981   -2.3289    0.0000 C   0  0  0  0  0  0  0  0  0  0  0  0
   -3.8971   -1.5789    0.0000 C   0  0  0  0  0  0  0  0  0  0  0  0
    0.0000   -2.3289    0.0000 N   0  0  0  0  0  0  0  0  0  0  0  0
    1.2990   -1.5789    0.0000 C   0  0  0  0  0  0  0  0  0  0  0  0
    2.5981   -2.3289    0.0000 C   0  0  0  0  0  0  0  0  0  0  0  0
    3.8971   -1.5789    0.0000 C   0  0  0  0  0  0  0  0  0  0  0  0
    3.8971   -0.0789    0.0000 C   0  0  0  0  0  0  0  0  0  0  0  0
    5.1962    0.6711    0.0000 N   0  0  0  0  0  0  0  0  0  0  0  0
    6.4952   -0.0789    0.0000 C   0  0  0  0  0  0  0  0  0  0  0  0
    5.1962    2.1711    0.0000 C   0  0  0  0  0  0  0  0  0  0  0  0
    2.5981    0.6711    0.0000 C   0  0  0  0  0  0  0  0  0  0  0  0
    1.2990   -0.0789    0.0000 C   0  0  0  0  0  0  0  0  0  0  0  0
   -0.0000    0.6711    0.0000 S   0  0  0  0  0  0  0  0  0  0  0  0
   -6.6962    2.1711    0.0000 H   0  0  0  0  0  0  0  0  0  0  0  0
   -3.6962    2.1711    0.0000 H   0  0  0  0  0  0  0  0  0  0  0  0
   -5.1962    3.6711    0.0000 H   0  0  0  0  0  0  0  0  0  0  0  0
   -7.2452    1.2201    0.0000 H   0  0  0  0  0  0  0  0  0  0  0  0
   -5.7452   -1.3780    0.0000 H   0  0  0  0  0  0  0  0  0  0  0  0
   -7.7942   -0.8289    0.0000 H   0  0  0  0  0  0  0  0  0  0  0  0
   -2.5981    2.1711    0.0000 H   0  0  0  0  0  0  0  0  0  0  0  0
   -2.5981   -3.8289    0.0000 H   0  0  0  0  0  0  0  0  0  0  0  0
   -5.1962   -2.3289    0.0000 H   0  0  0  0  0  0  0  0  0  0  0  0
    2.5981   -3.8289    0.0000 H   0  0  0  0  0  0  0  0  0  0  0  0
    5.1962   -2.3289    0.0000 H   0  0  0  0  0  0  0  0  0  0  0  0
    7.2452    1.2201    0.0000 H   0  0  0  0  0  0  0  0  0  0  0  0
    5.7452   -1.3780    0.0000 H   0  0  0  0  0  0  0  0  0  0  0  0
    7.7942   -0.8289    0.0000 H   0  0  0  0  0  0  0  0  0  0  0  0
    6.6962    2.1711    0.0000 H   0  0  0  0  0  0  0  0  0  0  0  0
    3.6962    2.1711    0.0000 H   0  0  0  0  0  0  0  0  0  0  0  0
    5.1962    3.6711    0.0000 H   0  0  0  0  0  0  0  0  0  0  0  0
    2.5981    2.1711    0.0000 H   0  0  0  0  0  0  0  0  0  0  0  0
  1  2  1  0
  1 21  1  0
  1 22  1  0
  1 23  1  0
  2  3  1  0
  2  4  1  0
  3 24  1  0
  3 25  1  0
  3 26  1  0
  4  5  2  0
  4  9  1  0
  5  6  1  0
  5 27  1  0
  6  7  2  0
  6 20  1  0
  7  8  1  0
  7 10  1  0
  8  9  2  0
  8 28  1  0
  9 29  1  0
 10 11  2  0
 11 12  1  0
 11 19  1  0
 12 13  2  0
 12 30  1  0
 13 14  1  0
 13 31  1  0
 14 15  2  0
 14 18  1  0
 15 16  1  0
 15 17  1  0
 16 32  1  0
 16 33  1  0
 16 34  1  0
 17 35  1  0
 17 36  1  0
 17 37  1  0
 18 19  2  0
 18 38  1  0
 19 20  1  0
M  CHG  1  15   1
M  END
$$$$

     RDKit          2D

 66 67  0  0  0  0  0  0  0  0999 V2000
   -6.9206   -2.9530    0.0000 C   0  0  0  0  0  0  0  0  0  0  0  0
   -6.1596   -1.6604    0.0000 C   0  0  0  0  0  0  0  0  0  0  0  0
   -5.3985   -0.3678    0.0000 O   0  0  0  0  0  0  0  0  0  0  0  0
   -3.8986   -0.3806    0.0000 C   0  0  0  0  0  0  0  0  0  0  0  0
   -3.6854   -1.1487    0.0000 O   0  0  0  0  0  0  0  0  0  0  0  0
   -3.1376    0.9120    0.0000 C   0  0  0  0  0  0  0  0  0  0  0  0
   -3.8765    2.2174    0.0000 C   0  0  0  0  0  0  0  0  0  0  0  0
   -3.1154    3.5100    0.0000 N   0  0  0  0  0  0  0  0  0  0  0  0
   -1.6155    3.4973    0.0000 C   0  0  0  0  0  0  0  0  0  0  0  0
   -0.8766    2.1919    0.0000 C   0  0  0  0  0  0  0  0  0  0  0  0
   -1.6376    0.8993    0.0000 C   0  0  0  0  0  0  0  0  0  0  0  0
   -1.9106   -0.5757    0.0000 C   0  0  0  0  0  0  0  0  0  0  0  0
   -3.3245   -1.0767    0.0000 C   0  0  0  0  0  0  0  0  0  0  0  0
   -3.5975   -2.5516    0.0000 C   0  0  0  0  0  0  0  0  0  0  0  0
   -2.4567   -3.5255    0.0000 C   0  0  0  0  0  0  0  0  0  0  0  0
   -1.0429   -3.0245    0.0000 C   0  0  0  0  0  0  0  0  0  0  0  0
   -0.7698   -1.5496    0.0000 C   0  0  0  0  0  0  0  0  0  0  0  0
    0.6440   -1.0486    0.0000 C   0  0  0  0  0  0  0  0  0  0  0  0
    1.7849   -2.0225    0.0000 C   0  0  0  0  0  0  0  0  0  0  0  0
    3.1987   -1.5215    0.0000 C   0  0  0  0  0  0  0  0  0  0  0  0
    3.4717   -0.0465    0.0000 O   0  0  0  0  0  0  0  0  0  0  0  0
    4.3395   -2.4954    0.0000 O   0  0  0  0  0  0  0  0  0  0  0  0
    5.7534   -1.9944    0.0000 C   0  0  0  0  0  0  0  0  0  0  0  0
    6.2544   -3.4082    0.0000 C   0  0  0  0  0  0  0  0  0  0  0  0
    5.2524   -0.5805    0.0000 C   0  0  0  0  0  0  0  0  0  0  0  0
    7.1672   -1.4934    0.0000 C   0  0  0  0  0  0  0  0  0  0  0  0
    0.6234    2.1791    0.0000 C   0  0  0  0  0  0  0  0  0  0  0  0
    1.5159    0.9736    0.0000 O   0  0  0  0  0  0  0  0  0  0  0  0
    1.3844    3.4717    0.0000 O   0  0  0  0  0  0  0  0  0  0  0  0
    2.8843    3.4590    0.0000 C   0  0  0  0  0  0  0  0  0  0  0  0
    4.3843    3.4462    0.0000 C   0  0  0  0  0  0  0  0  0  0  0  0
   -0.8545    4.7899    0.0000 C   0  0  0  0  0  0  0  0  0  0  0  0
   -5.3764    2.2302    0.0000 C   0  0  0  0  0  0  0  0  0  0  0  0
   -8.2132   -2.1920    0.0000 H   0  0  0  0  0  0  0  0  0  0  0  0
   -5.7304   -3.8659    0.0000 H   0  0  0  0  0  0  0  0  0  0  0  0
   -7.6816   -4.2456    0.0000 H   0  0  0  0  0  0  0  0  0  0  0  0
   -7.4522   -0.8994    0.0000 H   0  0  0  0  0  0  0  0  0  0  0  0
   -4.9693   -2.5733    0.0000 H   0  0  0  0  0  0  0  0  0  0  0  0
   -3.8544    4.8154    0.0000 H   0  0  0  0  0  0  0  0  0  0  0  0
   -0.2325    0.3743    0.0000 H   0  0  0  0  0  0  0  0  0  0  0  0
   -4.6671   -0.4077    0.0000 H   0  0  0  0  0  0  0  0  0  0  0  0
   -4.8481   -3.3799    0.0000 H   0  0  0  0  0  0  0  0  0  0  0  0
   -2.7297   -5.0005    0.0000 H   0  0  0  0  0  0  0  0  0  0  0  0
    0.0980   -3.9984    0.0000 H   0  0  0  0  0  0  0  0  0  0  0  0
    1.0948    0.3821    0.0000 H   0  0  0  0  0  0  0  0  0  0  0  0
    1.5118   -3.4974    0.0000 H   0  0  0  0  0  0  0  0  0  0  0  0
    7.7188   -3.0833    0.0000 H   0  0  0  0  0  0  0  0  0  0  0  0
    4.8405   -3.9092    0.0000 H   0  0  0  0  0  0  0  0  0  0  0  0
    6.7554   -4.8221    0.0000 H   0  0  0  0  0  0  0  0  0  0  0  0
    6.5946    0.0891    0.0000 H   0  0  0  0  0  0  0  0  0  0  0  0
    3.7593   -0.7245    0.0000 H   0  0  0  0  0  0  0  0  0  0  0  0
    4.7513    0.8333    0.0000 H   0  0  0  0  0  0  0  0  0  0  0  0
    6.8423   -0.0290    0.0000 H   0  0  0  0  0  0  0  0  0  0  0  0
    7.8369   -2.8356    0.0000 H   0  0  0  0  0  0  0  0  0  0  0  0
    8.5811   -0.9923    0.0000 H   0  0  0  0  0  0  0  0  0  0  0  0
    2.8971    4.9589    0.0000 H   0  0  0  0  0  0  0  0  0  0  0  0
    2.8716    1.9590    0.0000 H   0  0  0  0  0  0  0  0  0  0  0  0
    4.3715    1.9463    0.0000 H   0  0  0  0  0  0  0  0  0  0  0  0
    4.3970    4.9462    0.0000 H   0  0  0  0  0  0  0  0  0  0  0  0
    5.8842    3.4334    0.0000 H   0  0  0  0  0  0  0  0  0  0  0  0
   -2.1471    5.5509    0.0000 H   0  0  0  0  0  0  0  0  0  0  0  0
    0.4381    4.0289    0.0000 H   0  0  0  0  0  0  0  0  0  0  0  0
   -0.0934    6.0825    0.0000 H   0  0  0  0  0  0  0  0  0  0  0  0
   -5.3637    3.7301    0.0000 H   0  0  0  0  0  0  0  0  0  0  0  0
   -5.3892    0.7302    0.0000 H   0  0  0  0  0  0  0  0  0  0  0  0
   -6.8764    2.2429    0.0000 H   0  0  0  0  0  0  0  0  0  0  0  0
  1  2  1  0
  1 34  1  0
  1 35  1  0
  1 36  1  0
  2  3  1  0
  2 37  1  0
  2 38  1  0
  3  4  1  0
  4  5  2  0
  4  6  1  0
  6  7  2  0
  6 11  1  0
  7  8  1  0
  7 33  1  0
  8  9  1  0
  8 39  1  0
  9 10  2  0
  9 32  1  0
 10 11  1  0
 10 27  1  0
 11 12  1  0
 11 40  1  0
 12 13  2  0
 12 17  1  0
 13 14  1  0
 13 41  1  0
 14 15  2  0
 14 42  1  0
 15 16  1  0
 15 43  1  0
 16 17  2  0
 16 44  1  0
 17 18  1  0
 18 19  2  0
 18 45  1  0
 19 20  1  0
 19 46  1  0
 20 21  2  0
 20 22  1  0
 22 23  1  0
 23 24  1  0
 23 25  1  0
 23 26  1  0
 24 47  1  0
 24 48  1  0
 24 49  1  0
 25 50  1  0
 25 51  1  0
 25 52  1  0
 26 53  1  0
 26 54  1  0
 26 55  1  0
 27 28  2  0
 27 29  1  0
 29 30  1  0
 30 31  1  0
 30 56  1  0
 30 57  1  0
 31 58  1  0
 31 59  1  0
 31 60  1  0
 32 61  1  0
 32 62  1  0
 32 63  1  0
 33 64  1  0
 33 65  1  0
 33 66  1  0
M  END
$$$$

     RDKit          2D

 30 30  0  0  0  0  0  0  0  0999 V2000
   -3.8971   -0.3300    0.0000 C   0  0  0  0  0  0  0  0  0  0  0  0
   -3.8971    1.1700    0.0000 C   0  0  0  0  0  0  0  0  0  0  0  0
   -2.5981    1.9200    0.0000 C   0  0  0  0  0  0  0  0  0  0  0  0
   -1.2990    1.1700    0.0000 C   0  0  0  0  0  0  0  0  0  0  0  0
   -1.2990   -0.3300    0.0000 C   0  0  0  0  0  0  0  0  0  0  0  0
   -2.5981   -1.0800    0.0000 C   0  0  0  0  0  0  0  0  0  0  0  0
    0.0000   -1.0800    0.0000 C   0  0  0  0  0  0  0  0  0  0  0  0
    1.2990   -0.3300    0.0000 C   0  0  0  0  0  0  0  0  0  0  0  0
    2.5981   -1.0800    0.0000 C   0  0  0  0  0  0  0  0  0  0  0  0
    3.8971   -0.3300    0.0000 C   0  0  0  0  0  0  0  0  0  0  0  0
    3.8971    1.1700    0.0000 C   0  0  0  0  0  0  0  0  0  0  0  0
    2.5981    1.9200    0.0000 C   0  0  0  0  0  0  0  0  0  0  0  0
    1.2990    1.1700    0.0000 C   0  0  0  0  0  0  0  0  0  0  0  0
   -0.0000    1.9200    0.0000 N   0  0  0  0  0  0  0  0  0  0  0  0
    0.0000   -2.5800    0.0000 N   0  0  0  0  0  0  0  0  0  0  0  0
   -0.0000    4.4200    0.0000 O   0  0  0  0  0  0  0  0  0  0  0  0
   -0.7500    6.1700    0.0000 Cl  0  0  0  0  0  0  0  0  0  0  0  0
   -5.1962   -1.0800    0.0000 H   0  0  0  0  0  0  0  0  0  0  0  0
   -5.1962    1.9200    0.0000 H   0  0  0  0  0  0  0  0  0  0  0  0
   -2.5981    3.4200    0.0000 H   0  0  0  0  0  0  0  0  0  0  0  0
   -2.5981   -2.5800    0.0000 H   0  0  0  0  0  0  0  0  0  0  0  0
    2.5981   -2.5800    0.0000 H   0  0  0  0  0  0  0  0  0  0  0  0
    5.1962   -1.0800    0.0000 H   0  0  0  0  0  0  0  0  0  0  0  0
    5.1962    1.9200    0.0000 H   0  0  0  0  0  0  0  0  0  0  0  0
    2.5981    3.4200    0.0000 H   0  0  0  0  0  0  0  0  0  0  0  0
    1.2990   -3.3300    0.0000 H   0  0  0  0  0  0  0  0  0  0  0  0
   -1.2990   -3.3300    0.0000 H   0  0  0  0  0  0  0  0  0  0  0  0
    1.2990    5.1700    0.0000 H   0  0  0  0  0  0  0  0  0  0  0  0
   -1.2990    5.1700    0.0000 H   0  0  0  0  0  0  0  0  0  0  0  0
    0.7500    6.1700    0.0000 H   0  0  0  0  0  0  0  0  0  0  0  0
  1  2  2  0
  1  6  1  0
  1 18  1  0
  2  3  1  0
  2 19  1  0
  3  4  2  0
  3 20  1  0
  4  5  1  0
  4 14  1  0
  5  6  2  0
  5  7  1  0
  6 21  1  0
  7  8  2  0
  7 15  1  0
  8  9  1  0
  8 13  1  0
  9 10  2  0
  9 22  1  0
 10 11  1  0
 10 23  1  0
 11 12  2  0
 11 24  1  0
 12 13  1  0
 12 25  1  0
 13 14  2  0
 15 26  1  0
 15 27  1  0
 16 28  1  0
 16 29  1  0
 17 30  1  0
M  END
$$$$

     RDKit          2D

144147  0  0  1  0  0  0  0  0999 V2000
   -0.0738   -9.4786    0.0000 C   0  0  0  0  0  0  0  0  0  0  0  0
   -0.7421   -8.1357    0.0000 C   0  0  0  0  0  0  0  0  0  0  0  0
   -1.9485   -9.0270    0.0000 C   0  0  0  0  0  0  0  0  0  0  0  0
   -3.3237   -8.4278    0.0000 C   0  0  0  0  0  0  0  0  0  0  0  0
   -3.4923   -6.9373    0.0000 C   0  0  0  0  0  0  0  0  0  0  0  0
   -4.9586   -6.6212    0.0000 C   0  0  0  0  0  0  0  0  0  0  0  0
   -6.3227   -5.9973    0.0000 C   0  0  0  0  0  0  0  0  0  0  0  0
   -7.5208   -5.0947    0.0000 C   0  0  0  0  0  0  0  0  0  0  0  0
   -8.2291   -3.7725    0.0000 C   0  0  0  0  0  0  0  0  0  0  0  0
   -9.2051   -2.6334    0.0000 C   0  0  0  0  0  0  0  0  0  0  0  0
   -9.2928   -1.1360    0.0000 C   0  0  0  0  0  0  0  0  0  0  0  0
   -9.7004    0.3076    0.0000 C   0  0  0  0  0  0  0  0  0  0  0  0
   -9.1512    1.7034    0.0000 C   0  0  0  0  0  0  0  0  0  0  0  0
   -8.9150    3.1847    0.0000 C   0  0  0  0  0  0  0  0  0  0  0  0
   -8.0786    4.4299    0.0000 C   0  0  0  0  0  0  0  0  0  0  0  0
   -6.9941    5.4661    0.0000 C   0  0  0  0  0  0  0  0  0  0  0  0
   -5.7122    6.2450    0.0000 C   0  0  0  0  0  0  0  0  0  0  0  0
   -6.3479    7.6036    0.0000 O   0  0  0  0  0  0  0  0  0  0  0  0
   -4.2928    6.7301    0.0000 C   0  0  0  0  0  0  0  0  0  0  0  0
   -2.8023    6.8988    0.0000 C   0  0  0  0  0  0  0  0  0  0  0  0
   -1.3104    6.7431    0.0000 C   0  0  0  0  0  0  0  0  0  0  0  0
   -0.0218    5.9753    0.0000 C   0  0  0  0  0  0  0  0  0  0  0  0
    1.4018    5.5025    0.0000 C   0  0  0  0  0  0  0  0  0  0  0  0
    2.4952    4.4757    0.0000 C   0  0  0  0  0  0  0  0  0  0  0  0
    3.7447    5.3056    0.0000 O   0  0  0  0  0  0  0  0  0  0  0  0
    3.3424    3.2378    0.0000 C   0  0  0  0  0  0  0  0  0  0  0  0
    3.9036    1.8468    0.0000 C   0  0  0  0  0  0  0  0  0  0  0  0
    4.1527    0.3676    0.0000 O   0  0  0  0  0  0  0  0  0  0  0  0
    4.0780   -1.1305    0.0000 C   0  0  0  0  0  0  0  0  0  0  0  0
    5.5724   -1.0013    0.0000 O   0  0  0  0  0  0  0  0  0  0  0  0
    3.6830   -2.5776    0.0000 C   0  0  0  0  0  0  0  0  0  0  0  0
    5.1818   -2.5169    0.0000 C   0  0  0  0  0  0  0  0  0  0  0  0
    5.9837   -3.7846    0.0000 C   0  0  0  0  0  0  0  0  0  0  0  0
    5.2868   -5.1129    0.0000 C   0  0  0  0  0  0  0  0  0  0  0  0
    3.7880   -5.1735    0.0000 C   0  0  0  0  0  0  0  0  0  0  0  0
    2.9861   -3.9059    0.0000 N   0  0  0  0  0  0  0  0  0  0  0  0
    2.0200   -5.0533    0.0000 C   0  0  0  0  0  0  0  0  0  0  0  0
    2.9163   -6.2561    0.0000 O   0  0  0  0  0  0  0  0  0  0  0  0
    0.8298   -5.9663    0.0000 C   0  0  0  0  0  0  0  0  0  0  0  0
    1.6087   -7.2482    0.0000 O   0  0  0  0  0  0  0  0  0  0  0  0
   -0.9107   -6.6452    0.0000 C   0  0  0  0  0  0  0  0  0  0  0  0
   -2.2858   -6.0460    0.0000 O   0  0  0  0  0  0  0  0  0  0  0  0
    0.2958   -5.7539    0.0000 O   0  0  0  0  0  0  0  0  0  0  0  0
    5.3433    1.4257    0.0000 C   0  0  0  0  0  0  0  0  0  0  0  0
    5.7644    2.8654    0.0000 C   0  0  0  0  0  0  0  0  0  0  0  0
    6.7830    1.0046    0.0000 C   0  0  0  0  0  0  0  0  0  0  0  0
    8.2227    0.5835    0.0000 C   0  0  0  0  0  0  0  0  0  0  0  0
    8.3874    2.0745    0.0000 C   0  0  0  0  0  0  0  0  0  0  0  0
    9.7609    2.6773    0.0000 C   0  0  0  0  0  0  0  0  0  0  0  0
   10.9697    1.7892    0.0000 C   0  0  0  0  0  0  0  0  0  0  0  0
   10.8051    0.2983    0.0000 C   0  0  0  0  0  0  0  0  0  0  0  0
    9.4315   -0.3046    0.0000 C   0  0  0  0  0  0  0  0  0  0  0  0
   12.3019    0.3950    0.0000 O   0  0  0  0  0  0  0  0  0  0  0  0
   13.1341   -0.8530    0.0000 C   0  0  0  0  0  0  0  0  0  0  0  0
   11.6344    3.1339    0.0000 O   0  0  0  0  0  0  0  0  0  0  0  0
    2.6548    6.3272    0.0000 C   0  0  0  0  0  0  0  0  0  0  0  0
   -0.9943    8.2094    0.0000 C   0  0  0  0  0  0  0  0  0  0  0  0
   -2.0114    8.1733    0.0000 O   0  0  0  0  0  0  0  0  0  0  0  0
   -3.7944    8.1449    0.0000 O   0  0  0  0  0  0  0  0  0  0  0  0
   -4.7704    9.2839    0.0000 C   0  0  0  0  0  0  0  0  0  0  0  0
   -7.1358    6.9594    0.0000 C   0  0  0  0  0  0  0  0  0  0  0  0
   -9.9315    4.2877    0.0000 C   0  0  0  0  0  0  0  0  0  0  0  0
   -8.5476   -6.1881    0.0000 C   0  0  0  0  0  0  0  0  0  0  0  0
   -7.6575   -6.6816    0.0000 O   0  0  0  0  0  0  0  0  0  0  0  0
   -8.9176   -5.8678    0.0000 C   0  0  0  0  0  0  0  0  0  0  0  0
    1.2691   -8.8104    0.0000 H   0  0  0  0  0  0  0  0  0  0  0  0
   -1.3253  -10.3056    0.0000 H   0  0  0  0  0  0  0  0  0  0  0  0
    0.5944  -10.8215    0.0000 H   0  0  0  0  0  0  0  0  0  0  0  0
    0.6965   -7.7108    0.0000 H   0  0  0  0  0  0  0  0  0  0  0  0
   -0.9954  -10.1852    0.0000 H   0  0  0  0  0  0  0  0  0  0  0  0
   -2.7774  -10.2772    0.0000 H   0  0  0  0  0  0  0  0  0  0  0  0
   -3.6750   -9.8861    0.0000 H   0  0  0  0  0  0  0  0  0  0  0  0
   -4.8209   -8.5182    0.0000 H   0  0  0  0  0  0  0  0  0  0  0  0
   -4.9716   -6.6886    0.0000 H   0  0  0  0  0  0  0  0  0  0  0  0
   -4.7837   -8.1110    0.0000 H   0  0  0  0  0  0  0  0  0  0  0  0
   -5.9900   -7.7103    0.0000 H   0  0  0  0  0  0  0  0  0  0  0  0
   -6.4722   -7.4898    0.0000 H   0  0  0  0  0  0  0  0  0  0  0  0
   -6.9912   -2.9253    0.0000 H   0  0  0  0  0  0  0  0  0  0  0  0
  -10.4430   -3.4806    0.0000 H   0  0  0  0  0  0  0  0  0  0  0  0
   -7.8137   -0.8869    0.0000 H   0  0  0  0  0  0  0  0  0  0  0  0
  -11.1796    0.0585    0.0000 H   0  0  0  0  0  0  0  0  0  0  0  0
   -7.7042    1.3084    0.0000 H   0  0  0  0  0  0  0  0  0  0  0  0
  -10.2874    2.5793    0.0000 H   0  0  0  0  0  0  0  0  0  0  0  0
   -9.4691    4.9925    0.0000 H   0  0  0  0  0  0  0  0  0  0  0  0
   -8.5380    5.8578    0.0000 H   0  0  0  0  0  0  0  0  0  0  0  0
   -8.3253    6.1574    0.0000 H   0  0  0  0  0  0  0  0  0  0  0  0
   -5.3484    7.7958    0.0000 H   0  0  0  0  0  0  0  0  0  0  0  0
   -3.2736    8.3228    0.0000 H   0  0  0  0  0  0  0  0  0  0  0  0
   -0.6457    4.6112    0.0000 H   0  0  0  0  0  0  0  0  0  0  0  0
    1.0264    6.9548    0.0000 H   0  0  0  0  0  0  0  0  0  0  0  0
    4.2400    4.4397    0.0000 H   0  0  0  0  0  0  0  0  0  0  0  0
    4.8191    3.5012    0.0000 H   0  0  0  0  0  0  0  0  0  0  0  0
    4.9106    2.9586    0.0000 H   0  0  0  0  0  0  0  0  0  0  0  0
    4.8565   -1.6433    0.0000 H   0  0  0  0  0  0  0  0  0  0  0  0
    6.5694   -1.9473    0.0000 H   0  0  0  0  0  0  0  0  0  0  0  0
    5.5874   -1.0728    0.0000 H   0  0  0  0  0  0  0  0  0  0  0  0
    7.1708   -4.7015    0.0000 H   0  0  0  0  0  0  0  0  0  0  0  0
    7.0928   -2.7747    0.0000 H   0  0  0  0  0  0  0  0  0  0  0  0
    5.0863   -6.5994    0.0000 H   0  0  0  0  0  0  0  0  0  0  0  0
    6.7159   -5.5685    0.0000 H   0  0  0  0  0  0  0  0  0  0  0  0
    2.6968   -6.2027    0.0000 H   0  0  0  0  0  0  0  0  0  0  0  0
    4.1080   -6.6390    0.0000 H   0  0  0  0  0  0  0  0  0  0  0  0
    0.1271   -4.2634    0.0000 H   0  0  0  0  0  0  0  0  0  0  0  0
    5.2831   -0.0731    0.0000 H   0  0  0  0  0  0  0  0  0  0  0  0
    7.2041    2.4443    0.0000 H   0  0  0  0  0  0  0  0  0  0  0  0
    4.4694    3.6223    0.0000 H   0  0  0  0  0  0  0  0  0  0  0  0
    6.1855    4.3051    0.0000 H   0  0  0  0  0  0  0  0  0  0  0  0
    7.2041    2.4443    0.0000 H   0  0  0  0  0  0  0  0  0  0  0  0
    6.3619   -0.4351    0.0000 H   0  0  0  0  0  0  0  0  0  0  0  0
    7.5580   -0.7612    0.0000 H   0  0  0  0  0  0  0  0  0  0  0  0
    8.0322    3.5318    0.0000 H   0  0  0  0  0  0  0  0  0  0  0  0
    6.8905    1.9777    0.0000 H   0  0  0  0  0  0  0  0  0  0  0  0
   10.8454    3.7136    0.0000 H   0  0  0  0  0  0  0  0  0  0  0  0
    8.9287    3.9253    0.0000 H   0  0  0  0  0  0  0  0  0  0  0  0
   12.4094    1.3681    0.0000 H   0  0  0  0  0  0  0  0  0  0  0  0
   10.9799   -1.1915    0.0000 H   0  0  0  0  0  0  0  0  0  0  0  0
    8.3470   -1.3408    0.0000 H   0  0  0  0  0  0  0  0  0  0  0  0
   10.2637   -1.5525    0.0000 H   0  0  0  0  0  0  0  0  0  0  0  0
   14.3821   -0.0208    0.0000 H   0  0  0  0  0  0  0  0  0  0  0  0
   11.9969   -1.8311    0.0000 H   0  0  0  0  0  0  0  0  0  0  0  0
   13.9663   -2.1010    0.0000 H   0  0  0  0  0  0  0  0  0  0  0  0
   13.1313    3.2306    0.0000 H   0  0  0  0  0  0  0  0  0  0  0  0
    1.9890    7.6713    0.0000 H   0  0  0  0  0  0  0  0  0  0  0  0
    3.7581    5.3110    0.0000 H   0  0  0  0  0  0  0  0  0  0  0  0
    3.9077    7.1519    0.0000 H   0  0  0  0  0  0  0  0  0  0  0  0
   -2.3405    8.8709    0.0000 H   0  0  0  0  0  0  0  0  0  0  0  0
    0.4720    7.8933    0.0000 H   0  0  0  0  0  0  0  0  0  0  0  0
   -0.6782    9.6757    0.0000 H   0  0  0  0  0  0  0  0  0  0  0  0
   -2.7197    9.4955    0.0000 H   0  0  0  0  0  0  0  0  0  0  0  0
   -3.6314   10.2600    0.0000 H   0  0  0  0  0  0  0  0  0  0  0  0
   -6.1117    8.6125    0.0000 H   0  0  0  0  0  0  0  0  0  0  0  0
   -5.7464   10.4230    0.0000 H   0  0  0  0  0  0  0  0  0  0  0  0
   -5.7212    7.4583    0.0000 H   0  0  0  0  0  0  0  0  0  0  0  0
   -8.6352    7.0008    0.0000 H   0  0  0  0  0  0  0  0  0  0  0  0
   -7.2775    8.4527    0.0000 H   0  0  0  0  0  0  0  0  0  0  0  0
  -11.1502    3.4133    0.0000 H   0  0  0  0  0  0  0  0  0  0  0  0
   -9.1072    5.5410    0.0000 H   0  0  0  0  0  0  0  0  0  0  0  0
  -10.9480    5.3908    0.0000 H   0  0  0  0  0  0  0  0  0  0  0  0
   -9.7581   -5.3023    0.0000 H   0  0  0  0  0  0  0  0  0  0  0  0
   -7.7351   -7.4490    0.0000 H   0  0  0  0  0  0  0  0  0  0  0  0
   -9.4335   -7.3986    0.0000 H   0  0  0  0  0  0  0  0  0  0  0  0
   -9.8789   -7.0193    0.0000 H   0  0  0  0  0  0  0  0  0  0  0  0
   -8.4329   -4.4483    0.0000 H   0  0  0  0  0  0  0  0  0  0  0  0
  -10.0690   -4.9065    0.0000 H   0  0  0  0  0  0  0  0  0  0  0  0
  1  2  1  0
  1 66  1  0
  1 67  1  0
  1 68  1  0
  2  3  1  0
  2 41  1  0
  2 69  1  1
  3  4  1  0
  3 70  1  0
  3 71  1  0
  4  5  1  0
  4 72  1  0
  4 73  1  0
  5  6  1  0
  5 42  1  0
  5 74  1  1
  6  7  1  0
  6 75  1  0
  6 76  1  0
  7  8  1  0
  7 64  1  0
  7 77  1  1
  8  9  2  0
  8 63  1  0
  9 10  1  0
  9 78  1  0
 10 11  2  0
 10 79  1  0
 11 12  1  0
 11 80  1  0
 12 13  2  0
 12 81  1  0
 13 14  1  0
 13 82  1  0
 14 15  1  0
 14 83  1  6
 14 62  1  0
 15 16  1  0
 15 84  1  0
 15 85  1  0
 16 17  1  0
 16 86  1  6
 16 61  1  0
 17 18  2  0
 17 19  1  0
 19 20  1  0
 19 59  1  0
 19 87  1  1
 20 21  1  0
 20 58  1  0
 20 88  1  1
 21 22  2  0
 21 57  1  0
 22 23  1  0
 22 89  1  0
 23 24  1  0
 23 90  1  6
 23 56  1  0
 24 25  2  0
 24 26  1  0
 26 27  1  0
 26 91  1  0
 26 92  1  0
 27 28  1  0
 27 44  1  0
 27 93  1  6
 28 29  1  0
 29 30  2  0
 29 31  1  0
 31 32  1  0
 31 36  1  0
 31 94  1  1
 32 33  1  0
 32 95  1  0
 32 96  1  0
 33 34  1  0
 33 97  1  0
 33 98  1  0
 34 35  1  0
 34 99  1  0
 34100  1  0
 35 36  1  0
 35101  1  0
 35102  1  0
 36 37  1  0
 37 38  2  0
 37 39  1  0
 39 40  2  0
 39 41  1  0
 41 42  1  0
 41 43  1  6
 43103  1  0
 44 46  1  0
 44104  1  1
 44 45  1  0
 45105  1  0
 45106  1  0
 45107  1  0
 46 47  1  0
 46108  1  0
 46109  1  0
 47 48  1  0
 47 52  1  0
 47110  1  1
 48 49  1  0
 48111  1  0
 48112  1  0
 49 50  1  0
 49113  1  0
 49114  1  0
 50 51  1  0
 50115  1  6
 50 55  1  0
 51 52  1  0
 51 53  1  0
 51116  1  1
 52117  1  0
 52118  1  0
 53 54  1  0
 54119  1  0
 54120  1  0
 54121  1  0
 55122  1  0
 56123  1  0
 56124  1  0
 56125  1  0
 57126  1  0
 57127  1  0
 57128  1  0
 58129  1  0
 59 60  1  0
 60130  1  0
 60131  1  0
 60132  1  0
 61133  1  0
 61134  1  0
 61135  1  0
 62136  1  0
 62137  1  0
 62138  1  0
 63139  1  0
 63140  1  0
 63141  1  0
 64 65  1  0
 65142  1  0
 65143  1  0
 65144  1  0
M  END
$$$$

     RDKit          2D

 66 67  0  0  1  0  0  0  0  0999 V2000
   -0.7779   -3.2488    0.0000 C   0  0  0  0  0  0  0  0  0  0  0  0
   -1.3672   -1.8694    0.0000 C   0  0  0  0  0  0  0  0  0  0  0  0
   -2.7466   -2.4587    0.0000 C   0  0  0  0  0  0  0  0  0  0  0  0
    0.0122   -1.2801    0.0000 C   0  0  0  0  0  0  0  0  0  0  0  0
    0.1915    0.2091    0.0000 C   0  0  0  0  0  0  0  0  0  0  0  0
    1.5709    0.7984    0.0000 C   0  0  0  0  0  0  0  0  0  0  0  0
    2.7710   -0.1015    0.0000 C   0  0  0  0  0  0  0  0  0  0  0  0
    2.5916   -1.5908    0.0000 C   0  0  0  0  0  0  0  0  0  0  0  0
    1.2122   -2.1801    0.0000 N   0  0  0  0  0  0  0  0  0  0  0  0
    3.7917   -2.4907    0.0000 C   0  0  0  0  0  0  0  0  0  0  0  0
    4.6916   -1.2907    0.0000 C   0  0  0  0  0  0  0  0  0  0  0  0
    4.9917   -3.3907    0.0000 C   0  0  0  0  0  0  0  0  0  0  0  0
    4.1504    0.4878    0.0000 C   0  0  0  0  0  0  0  0  0  0  0  0
    5.5298    1.0770    0.0000 O   0  0  0  0  0  0  0  0  0  0  0  0
    6.7298    0.1771    0.0000 C   0  0  0  0  0  0  0  0  0  0  0  0
    1.7503    2.2877    0.0000 C   0  0  0  0  0  0  0  0  0  0  0  0
    3.1297    2.8769    0.0000 C   0  0  0  0  0  0  0  0  0  0  0  0
    3.3091    4.3662    0.0000 C   0  0  0  0  0  0  0  0  0  0  0  0
    2.1090    5.2661    0.0000 C   0  0  0  0  0  0  0  0  0  0  0  0
    0.7296    4.6768    0.0000 C   0  0  0  0  0  0  0  0  0  0  0  0
    0.5503    3.1876    0.0000 C   0  0  0  0  0  0  0  0  0  0  0  0
    2.2884    6.7554    0.0000 F   0  0  0  0  0  0  0  0  0  0  0  0
   -1.0085    1.1091    0.0000 C   0  0  0  0  0  0  0  0  0  0  0  0
   -2.3879    0.5198    0.0000 C   0  0  0  0  0  0  0  0  0  0  0  0
   -3.5879    1.4198    0.0000 C   0  0  0  0  0  0  0  0  0  0  0  0
   -4.4879    0.2197    0.0000 C   0  0  0  0  0  0  0  0  0  0  0  0
   -5.3878   -0.9803    0.0000 C   0  0  0  0  0  0  0  0  0  0  0  0
   -6.5879   -0.0804    0.0000 C   0  0  0  0  0  0  0  0  0  0  0  0
   -7.7879    0.8196    0.0000 C   0  0  0  0  0  0  0  0  0  0  0  0
   -7.6085    2.3088    0.0000 O   0  0  0  0  0  0  0  0  0  0  0  0
   -9.1673    0.2303    0.0000 O   0  0  0  0  0  0  0  0  0  0  0  0
   -4.1878   -1.8803    0.0000 O   0  0  0  0  0  0  0  0  0  0  0  0
   -4.7880    2.3197    0.0000 O   0  0  0  0  0  0  0  0  0  0  0  0
   -1.5440   -3.6934    0.0000 H   0  0  0  0  0  0  0  0  0  0  0  0
    0.7031   -3.0108    0.0000 H   0  0  0  0  0  0  0  0  0  0  0  0
   -0.1887   -4.6282    0.0000 H   0  0  0  0  0  0  0  0  0  0  0  0
   -2.1203   -0.5721    0.0000 H   0  0  0  0  0  0  0  0  0  0  0  0
   -3.4997   -1.1614    0.0000 H   0  0  0  0  0  0  0  0  0  0  0  0
   -2.5005   -3.3095    0.0000 H   0  0  0  0  0  0  0  0  0  0  0  0
   -4.0439   -3.2117    0.0000 H   0  0  0  0  0  0  0  0  0  0  0  0
    2.8917   -3.6908    0.0000 H   0  0  0  0  0  0  0  0  0  0  0  0
    5.4597   -1.7318    0.0000 H   0  0  0  0  0  0  0  0  0  0  0  0
    3.9249   -0.3482    0.0000 H   0  0  0  0  0  0  0  0  0  0  0  0
    5.5016   -0.2107    0.0000 H   0  0  0  0  0  0  0  0  0  0  0  0
    4.0917   -4.5907    0.0000 H   0  0  0  0  0  0  0  0  0  0  0  0
    5.6055   -2.7521    0.0000 H   0  0  0  0  0  0  0  0  0  0  0  0
    6.1917   -4.2906    0.0000 H   0  0  0  0  0  0  0  0  0  0  0  0
    3.7336    1.9287    0.0000 H   0  0  0  0  0  0  0  0  0  0  0  0
    4.8105   -0.3840    0.0000 H   0  0  0  0  0  0  0  0  0  0  0  0
    7.6298    1.3771    0.0000 H   0  0  0  0  0  0  0  0  0  0  0  0
    5.8299   -1.0230    0.0000 H   0  0  0  0  0  0  0  0  0  0  0  0
    7.9299   -0.7229    0.0000 H   0  0  0  0  0  0  0  0  0  0  0  0
    4.4305    2.1300    0.0000 H   0  0  0  0  0  0  0  0  0  0  0  0
    4.6885    4.9555    0.0000 H   0  0  0  0  0  0  0  0  0  0  0  0
   -0.4704    5.5768    0.0000 H   0  0  0  0  0  0  0  0  0  0  0  0
   -0.8907    2.7709    0.0000 H   0  0  0  0  0  0  0  0  0  0  0  0
   -1.0120    2.6091    0.0000 H   0  0  0  0  0  0  0  0  0  0  0  0
   -2.9223   -0.8818    0.0000 H   0  0  0  0  0  0  0  0  0  0  0  0
   -2.6880    2.6198    0.0000 H   0  0  0  0  0  0  0  0  0  0  0  0
   -5.5693    1.2592    0.0000 H   0  0  0  0  0  0  0  0  0  0  0  0
   -5.7887    0.9667    0.0000 H   0  0  0  0  0  0  0  0  0  0  0  0
   -6.2878   -2.1803    0.0000 H   0  0  0  0  0  0  0  0  0  0  0  0
   -7.6274   -1.1617    0.0000 H   0  0  0  0  0  0  0  0  0  0  0  0
   -7.3348   -1.3811    0.0000 H   0  0  0  0  0  0  0  0  0  0  0  0
   -4.5474   -3.3365    0.0000 H   0  0  0  0  0  0  0  0  0  0  0  0
   -4.6086    3.8089    0.0000 H   0  0  0  0  0  0  0  0  0  0  0  0
  1  2  1  0
  1 34  1  0
  1 35  1  0
  1 36  1  0
  2  3  1  0
  2  4  1  0
  2 37  1  0
  3 38  1  0
  3 39  1  0
  3 40  1  0
  4  5  2  0
  4  9  1  0
  5  6  1  0
  5 23  1  0
  6  7  2  0
  6 16  1  0
  7  8  1  0
  7 13  1  0
  8  9  2  0
  8 10  1  0
 10 11  1  0
 10 12  1  0
 10 41  1  0
 11 42  1  0
 11 43  1  0
 11 44  1  0
 12 45  1  0
 12 46  1  0
 12 47  1  0
 13 14  1  0
 13 48  1  0
 13 49  1  0
 14 15  1  0
 15 50  1  0
 15 51  1  0
 15 52  1  0
 16 17  2  0
 16 21  1  0
 17 18  1  0
 17 53  1  0
 18 19  2  0
 18 54  1  0
 19 20  1  0
 19 22  1  0
 20 21  2  0
 20 55  1  0
 21 56  1  0
 23 24  2  0
 23 57  1  0
 24 58  1  0
 25 33  1  0
 25 59  1  1
 25 26  1  0
 25 24  1  0
 26 60  1  0
 26 61  1  0
 27 32  1  0
 27 62  1  6
 27 28  1  0
 27 26  1  0
 28 29  1  0
 28 63  1  0
 28 64  1  0
 29 30  2  0
 29 31  1  0
 32 65  1  0
 33 66  1  0
M  CHG  1  31  -1
M  END
$$$$

     RDKit          2D

 44 45  0  0  0  0  0  0  0  0999 V2000
   -4.5610    1.2039    0.0000 C   0  0  0  0  0  0  0  0  0  0  0  0
   -5.9886    0.7436    0.0000 C   0  0  0  0  0  0  0  0  0  0  0  0
   -6.3038   -0.7230    0.0000 C   0  0  0  0  0  0  0  0  0  0  0  0
   -5.1913   -1.7291    0.0000 C   0  0  0  0  0  0  0  0  0  0  0  0
   -3.7637   -1.2688    0.0000 C   0  0  0  0  0  0  0  0  0  0  0  0
   -3.4485    0.1977    0.0000 C   0  0  0  0  0  0  0  0  0  0  0  0
   -2.0209    0.6581    0.0000 C   0  0  0  0  0  0  0  0  0  0  0  0
   -0.5933    1.1184    0.0000 O   0  0  0  0  0  0  0  0  0  0  0  0
    0.5192    0.1123    0.0000 C   0  0  0  0  0  0  0  0  0  0  0  0
    1.6316   -0.8939    0.0000 C   0  0  0  0  0  0  0  0  0  0  0  0
    2.7441   -1.9001    0.0000 N   0  0  0  0  0  0  0  0  0  0  0  0
    2.5840   -3.3915    0.0000 C   0  0  0  0  0  0  0  0  0  0  0  0
    3.9530   -4.0047    0.0000 C   0  0  0  0  0  0  0  0  0  0  0  0
    4.9591   -2.8922    0.0000 N   0  0  0  0  0  0  0  0  0  0  0  0
    4.2120   -1.5915    0.0000 C   0  0  0  0  0  0  0  0  0  0  0  0
    1.5253    1.2247    0.0000 C   0  0  0  0  0  0  0  0  0  0  0  0
    2.9919    0.9096    0.0000 C   0  0  0  0  0  0  0  0  0  0  0  0
    3.9980    2.0221    0.0000 C   0  0  0  0  0  0  0  0  0  0  0  0
    3.5377    3.4497    0.0000 C   0  0  0  0  0  0  0  0  0  0  0  0
    2.0712    3.7648    0.0000 C   0  0  0  0  0  0  0  0  0  0  0  0
    1.0650    2.6524    0.0000 C   0  0  0  0  0  0  0  0  0  0  0  0
    4.5439    4.5622    0.0000 Cl  0  0  0  0  0  0  0  0  0  0  0  0
    3.2637    0.0666    0.0000 Cl  0  0  0  0  0  0  0  0  0  0  0  0
   -7.7314   -1.1833    0.0000 Cl  0  0  0  0  0  0  0  0  0  0  0  0
    0.5196    7.6924    0.0000 N   0  0  0  0  0  0  0  0  0  0  0  0
    0.5196    6.1924    0.0000 O   0  0  0  0  0  0  0  0  0  0  0  0
   -0.7794    8.4424    0.0000 O   0  0  0  0  0  0  0  0  0  0  0  0
    1.8187    8.4424    0.0000 O   0  0  0  0  0  0  0  0  0  0  0  0
   -4.2459    2.6704    0.0000 H   0  0  0  0  0  0  0  0  0  0  0  0
   -7.1011    1.7497    0.0000 H   0  0  0  0  0  0  0  0  0  0  0  0
   -5.5064   -3.1957    0.0000 H   0  0  0  0  0  0  0  0  0  0  0  0
   -2.6512   -2.2750    0.0000 H   0  0  0  0  0  0  0  0  0  0  0  0
   -2.4813    2.0857    0.0000 H   0  0  0  0  0  0  0  0  0  0  0  0
   -1.5606   -0.7695    0.0000 H   0  0  0  0  0  0  0  0  0  0  0  0
   -0.4870   -1.0002    0.0000 H   0  0  0  0  0  0  0  0  0  0  0  0
    2.3671   -0.4003    0.0000 H   0  0  0  0  0  0  0  0  0  0  0  0
    0.6255   -2.0064    0.0000 H   0  0  0  0  0  0  0  0  0  0  0  0
    1.2833   -4.1386    0.0000 H   0  0  0  0  0  0  0  0  0  0  0  0
    4.2616   -5.4726    0.0000 H   0  0  0  0  0  0  0  0  0  0  0  0
    4.8252   -0.2225    0.0000 H   0  0  0  0  0  0  0  0  0  0  0  0
    5.4646    1.7070    0.0000 H   0  0  0  0  0  0  0  0  0  0  0  0
    1.6108    5.1924    0.0000 H   0  0  0  0  0  0  0  0  0  0  0  0
   -0.4015    2.9675    0.0000 H   0  0  0  0  0  0  0  0  0  0  0  0
   -2.0785    7.6924    0.0000 H   0  0  0  0  0  0  0  0  0  0  0  0
  1  2  2  0
  1  6  1  0
  1 29  1  0
  2  3  1  0
  2 30  1  0
  3  4  2  0
  3 24  1  0
  4  5  1  0
  4 31  1  0
  5  6  2  0
  5 32  1  0
  6  7  1  0
  7  8  1  0
  7 33  1  0
  7 34  1  0
  8  9  1  0
  9 10  1  0
  9 16  1  0
  9 35  1  1
 10 11  1  0
 10 36  1  0
 10 37  1  0
 11 12  1  0
 11 15  1  0
 12 13  2  0
 12 38  1  0
 13 14  1  0
 13 39  1  0
 14 15  2  0
 15 40  1  0
 16 17  2  0
 16 21  1  0
 17 18  1  0
 17 23  1  0
 18 19  2  0
 18 41  1  0
 19 20  1  0
 19 22  1  0
 20 21  2  0
 20 42  1  0
 21 43  1  0
 25 26  2  0
 25 27  1  0
 25 28  1  0
 27 44  1  0
M  CHG  2  25   1  28  -1
M  END
$$$$

     RDKit          2D

 42 45  0  0  0  0  0  0  0  0999 V2000
   -4.4659   -0.4507    0.0000 C   0  0  0  0  0  0  0  0  0  0  0  0
   -3.5049   -1.6024    0.0000 C   0  0  0  0  0  0  0  0  0  0  0  0
   -2.0270   -1.3460    0.0000 C   0  0  0  0  0  0  0  0  0  0  0  0
   -1.5101    0.0621    0.0000 C   0  0  0  0  0  0  0  0  0  0  0  0
   -2.4711    1.2138    0.0000 C   0  0  0  0  0  0  0  0  0  0  0  0
   -3.9490    0.9574    0.0000 C   0  0  0  0  0  0  0  0  0  0  0  0
   -0.0322    0.3185    0.0000 C   0  0  0  0  0  0  0  0  0  0  0  0
    1.4458    0.5749    0.0000 C   0  0  0  0  0  0  0  0  0  0  0  0
    2.4068   -0.5768    0.0000 C   0  0  0  0  0  0  0  0  0  0  0  0
    3.8847   -0.3204    0.0000 C   0  0  0  0  0  0  0  0  0  0  0  0
    4.4016    1.0877    0.0000 C   0  0  0  0  0  0  0  0  0  0  0  0
    3.4406    2.2394    0.0000 C   0  0  0  0  0  0  0  0  0  0  0  0
    1.9627    1.9830    0.0000 C   0  0  0  0  0  0  0  0  0  0  0  0
    0.2243   -1.1594    0.0000 C   0  0  0  0  0  0  0  0  0  0  0  0
    1.6324   -1.6763    0.0000 C   0  0  0  0  0  0  0  0  0  0  0  0
    1.8888   -3.1542    0.0000 C   0  0  0  0  0  0  0  0  0  0  0  0
    0.7371   -4.1153    0.0000 C   0  0  0  0  0  0  0  0  0  0  0  0
   -0.6711   -3.5984    0.0000 C   0  0  0  0  0  0  0  0  0  0  0  0
   -0.9275   -2.1204    0.0000 C   0  0  0  0  0  0  0  0  0  0  0  0
   -1.7200   -2.0350    0.0000 Cl  0  0  0  0  0  0  0  0  0  0  0  0
   -0.2886    1.7964    0.0000 N   0  0  0  0  0  0  0  0  0  0  0  0
   -1.6349    2.4577    0.0000 C   0  0  0  0  0  0  0  0  0  0  0  0
   -1.4221    3.9425    0.0000 C   0  0  0  0  0  0  0  0  0  0  0  0
    0.0558    4.1989    0.0000 N   0  0  0  0  0  0  0  0  0  0  0  0
    0.7564    2.8726    0.0000 C   0  0  0  0  0  0  0  0  0  0  0  0
   -5.9438   -0.7071    0.0000 H   0  0  0  0  0  0  0  0  0  0  0  0
   -4.0218   -3.0106    0.0000 H   0  0  0  0  0  0  0  0  0  0  0  0
   -1.3732   -2.6961    0.0000 H   0  0  0  0  0  0  0  0  0  0  0  0
   -2.3103    2.7052    0.0000 H   0  0  0  0  0  0  0  0  0  0  0  0
   -4.9100    2.1091    0.0000 H   0  0  0  0  0  0  0  0  0  0  0  0
    2.2460   -2.0682    0.0000 H   0  0  0  0  0  0  0  0  0  0  0  0
    4.8457   -1.4721    0.0000 H   0  0  0  0  0  0  0  0  0  0  0  0
    5.8795    1.3441    0.0000 H   0  0  0  0  0  0  0  0  0  0  0  0
    3.9575    3.6476    0.0000 H   0  0  0  0  0  0  0  0  0  0  0  0
    1.3089    3.3331    0.0000 H   0  0  0  0  0  0  0  0  0  0  0  0
    2.9824   -1.0226    0.0000 H   0  0  0  0  0  0  0  0  0  0  0  0
    3.2969   -3.6712    0.0000 H   0  0  0  0  0  0  0  0  0  0  0  0
    0.9935   -5.5932    0.0000 H   0  0  0  0  0  0  0  0  0  0  0  0
   -1.8228   -4.5594    0.0000 H   0  0  0  0  0  0  0  0  0  0  0  0
   -3.0914    2.0989    0.0000 H   0  0  0  0  0  0  0  0  0  0  0  0
   -2.4982    4.9875    0.0000 H   0  0  0  0  0  0  0  0  0  0  0  0
    2.2486    3.0253    0.0000 H   0  0  0  0  0  0  0  0  0  0  0  0
  1  2  2  0
  1  6  1  0
  1 26  1  0
  2  3  1  0
  2 27  1  0
  3  4  2  0
  3 28  1  0
  4  5  1  0
  4  7  1  0
  5  6  2  0
  5 29  1  0
  6 30  1  0
  7  8  1  0
  7 14  1  0
  7 21  1  0
  8  9  2  0
  8 13  1  0
  9 10  1  0
  9 31  1  0
 10 11  2  0
 10 32  1  0
 11 12  1  0
 11 33  1  0
 12 13  2  0
 12 34  1  0
 13 35  1  0
 14 15  2  0
 14 19  1  0
 15 16  1  0
 15 36  1  0
 16 17  2  0
 16 37  1  0
 17 18  1  0
 17 38  1  0
 18 19  2  0
 18 39  1  0
 19 20  1  0
 21 22  1  0
 21 25  1  0
 22 23  2  0
 22 40  1  0
 23 24  1  0
 23 41  1  0
 24 25  2  0
 25 42  1  0
M  END
$$$$

     RDKit          2D

 30 32  0  0  1  0  0  0  0  0999 V2000
    0.2034    2.3507    0.0000 C   0  0  0  0  0  0  0  0  0  0  0  0
    1.1975    1.2273    0.0000 C   0  0  0  0  0  0  0  0  0  0  0  0
    0.4363   -0.0652    0.0000 S   0  0  0  0  0  0  0  0  0  0  0  0
   -1.0282    0.2593    0.0000 C   0  0  0  0  0  0  0  0  0  0  0  0
   -2.1515   -0.7347    0.0000 C   0  0  0  0  0  0  0  0  0  0  0  0
   -1.8523   -2.2046    0.0000 C   0  0  0  0  0  0  0  0  0  0  0  0
   -1.5531   -3.6744    0.0000 N   0  0  0  0  0  0  0  0  0  0  0  0
   -3.5740   -0.2589    0.0000 N   0  0  0  0  0  0  0  0  0  0  0  0
   -4.7951   -1.1301    0.0000 C   0  0  0  0  0  0  0  0  0  0  0  0
   -6.0010   -0.2379    0.0000 C   0  0  0  0  0  0  0  0  0  0  0  0
   -5.5252    1.1846    0.0000 N   0  0  0  0  0  0  0  0  0  0  0  0
   -4.0252    1.1716    0.0000 C   0  0  0  0  0  0  0  0  0  0  0  0
   -1.1721    1.7524    0.0000 S   0  0  0  0  0  0  0  0  0  0  0  0
    2.4034    0.3352    0.0000 C   0  0  0  0  0  0  0  0  0  0  0  0
    2.2337   -1.1551    0.0000 C   0  0  0  0  0  0  0  0  0  0  0  0
    3.4396   -2.0473    0.0000 C   0  0  0  0  0  0  0  0  0  0  0  0
    4.8151   -1.4490    0.0000 C   0  0  0  0  0  0  0  0  0  0  0  0
    4.9848    0.0414    0.0000 C   0  0  0  0  0  0  0  0  0  0  0  0
    3.7789    0.9335    0.0000 C   0  0  0  0  0  0  0  0  0  0  0  0
    6.0210   -2.3411    0.0000 Cl  0  0  0  0  0  0  0  0  0  0  0  0
    0.8582   -1.7534    0.0000 Cl  0  0  0  0  0  0  0  0  0  0  0  0
    1.4245    3.2219    0.0000 H   0  0  0  0  0  0  0  0  0  0  0  0
   -0.5353    3.6561    0.0000 H   0  0  0  0  0  0  0  0  0  0  0  0
    2.2108    2.3334    0.0000 H   0  0  0  0  0  0  0  0  0  0  0  0
   -4.8081   -2.6300    0.0000 H   0  0  0  0  0  0  0  0  0  0  0  0
   -7.4315   -0.6891    0.0000 H   0  0  0  0  0  0  0  0  0  0  0  0
   -3.1331    2.3775    0.0000 H   0  0  0  0  0  0  0  0  0  0  0  0
    3.2699   -3.5376    0.0000 H   0  0  0  0  0  0  0  0  0  0  0  0
    6.3603    0.6396    0.0000 H   0  0  0  0  0  0  0  0  0  0  0  0
    3.9485    2.4239    0.0000 H   0  0  0  0  0  0  0  0  0  0  0  0
  1  2  1  0
  1 13  1  0
  1 22  1  0
  1 23  1  0
  2  3  1  0
  2 24  1  6
  2 14  1  0
  3  4  1  0
  4  5  2  0
  4 13  1  0
  5  6  1  0
  5  8  1  0
  6  7  3  0
  8  9  1  0
  8 12  1  0
  9 10  2  0
  9 25  1  0
 10 11  1  0
 10 26  1  0
 11 12  2  0
 12 27  1  0
 14 15  2  0
 14 19  1  0
 15 16  1  0
 15 21  1  0
 16 17  2  0
 16 28  1  0
 17 18  1  0
 17 20  1  0
 18 19  2  0
 18 29  1  0
 19 30  1  0
M  END
$$$$

     RDKit          2D

151154  0  0  1  0  0  0  0  0999 V2000
   -1.6895   -9.5217    0.0000 C   0  0  0  0  0  0  0  0  0  0  0  0
   -2.2242   -8.1203    0.0000 C   0  0  0  0  0  0  0  0  0  0  0  0
   -3.5115   -8.8902    0.0000 C   0  0  0  0  0  0  0  0  0  0  0  0
   -4.8220   -8.1604    0.0000 C   0  0  0  0  0  0  0  0  0  0  0  0
   -4.8451   -6.6605    0.0000 C   0  0  0  0  0  0  0  0  0  0  0  0
   -6.2738   -6.2036    0.0000 C   0  0  0  0  0  0  0  0  0  0  0  0
   -7.5709   -5.4502    0.0000 C   0  0  0  0  0  0  0  0  0  0  0  0
   -8.6757   -4.4355    0.0000 C   0  0  0  0  0  0  0  0  0  0  0  0
   -9.2523   -3.0508    0.0000 C   0  0  0  0  0  0  0  0  0  0  0  0
  -10.1132   -1.8224    0.0000 C   0  0  0  0  0  0  0  0  0  0  0  0
  -10.0551   -0.3235    0.0000 C   0  0  0  0  0  0  0  0  0  0  0  0
  -10.3206    1.1528    0.0000 C   0  0  0  0  0  0  0  0  0  0  0  0
   -9.6385    2.4887    0.0000 C   0  0  0  0  0  0  0  0  0  0  0  0
   -9.2595    3.9401    0.0000 C   0  0  0  0  0  0  0  0  0  0  0  0
   -8.3062    5.0982    0.0000 C   0  0  0  0  0  0  0  0  0  0  0  0
   -7.1262    6.0242    0.0000 C   0  0  0  0  0  0  0  0  0  0  0  0
   -5.7747    6.6750    0.0000 C   0  0  0  0  0  0  0  0  0  0  0  0
   -6.2756    8.0889    0.0000 O   0  0  0  0  0  0  0  0  0  0  0  0
   -4.3149    7.0200    0.0000 C   0  0  0  0  0  0  0  0  0  0  0  0
   -2.8151    7.0432    0.0000 C   0  0  0  0  0  0  0  0  0  0  0  0
   -1.3454    6.7434    0.0000 C   0  0  0  0  0  0  0  0  0  0  0  0
   -0.1374    5.8541    0.0000 C   0  0  0  0  0  0  0  0  0  0  0  0
    1.2335    5.2454    0.0000 C   0  0  0  0  0  0  0  0  0  0  0  0
    2.2221    4.1173    0.0000 C   0  0  0  0  0  0  0  0  0  0  0  0
    3.5463    4.8219    0.0000 O   0  0  0  0  0  0  0  0  0  0  0  0
    2.9451    2.8030    0.0000 C   0  0  0  0  0  0  0  0  0  0  0  0
    3.3687    1.3640    0.0000 C   0  0  0  0  0  0  0  0  0  0  0  0
    3.4730   -0.1323    0.0000 O   0  0  0  0  0  0  0  0  0  0  0  0
    3.2532   -1.6161    0.0000 C   0  0  0  0  0  0  0  0  0  0  0  0
    4.7531   -1.6326    0.0000 O   0  0  0  0  0  0  0  0  0  0  0  0
    2.7195   -3.0180    0.0000 C   0  0  0  0  0  0  0  0  0  0  0  0
    4.2171   -3.1032    0.0000 C   0  0  0  0  0  0  0  0  0  0  0  0
    4.8922   -4.4427    0.0000 C   0  0  0  0  0  0  0  0  0  0  0  0
    4.0696   -5.6970    0.0000 C   0  0  0  0  0  0  0  0  0  0  0  0
    2.5720   -5.6119    0.0000 C   0  0  0  0  0  0  0  0  0  0  0  0
    1.8970   -4.2724    0.0000 N   0  0  0  0  0  0  0  0  0  0  0  0
    0.8240   -5.3206    0.0000 C   0  0  0  0  0  0  0  0  0  0  0  0
    1.5994   -6.6047    0.0000 O   0  0  0  0  0  0  0  0  0  0  0  0
   -0.4492   -6.1137    0.0000 C   0  0  0  0  0  0  0  0  0  0  0  0
    0.2016   -7.4652    0.0000 O   0  0  0  0  0  0  0  0  0  0  0  0
   -2.2474   -6.6204    0.0000 C   0  0  0  0  0  0  0  0  0  0  0  0
   -3.5578   -5.8906    0.0000 O   0  0  0  0  0  0  0  0  0  0  0  0
   -0.9601   -5.8505    0.0000 O   0  0  0  0  0  0  0  0  0  0  0  0
    4.7607    0.8052    0.0000 C   0  0  0  0  0  0  0  0  0  0  0  0
    5.3195    2.1972    0.0000 C   0  0  0  0  0  0  0  0  0  0  0  0
    6.1527    0.2463    0.0000 C   0  0  0  0  0  0  0  0  0  0  0  0
    7.5447   -0.3126    0.0000 C   0  0  0  0  0  0  0  0  0  0  0  0
    7.8533    1.1553    0.0000 C   0  0  0  0  0  0  0  0  0  0  0  0
    9.2789    1.6220    0.0000 C   0  0  0  0  0  0  0  0  0  0  0  0
   10.3958    0.6207    0.0000 C   0  0  0  0  0  0  0  0  0  0  0  0
   10.0871   -0.8472    0.0000 C   0  0  0  0  0  0  0  0  0  0  0  0
    8.6616   -1.3138    0.0000 C   0  0  0  0  0  0  0  0  0  0  0  0
   11.5863   -0.8962    0.0000 O   0  0  0  0  0  0  0  0  0  0  0  0
   12.2934   -2.2191    0.0000 C   0  0  0  0  0  0  0  0  0  0  0  0
   11.1879    1.8945    0.0000 O   0  0  0  0  0  0  0  0  0  0  0  0
   12.6871    1.8455    0.0000 C   0  0  0  0  0  0  0  0  0  0  0  0
   14.1863    1.7964    0.0000 C   0  0  0  0  0  0  0  0  0  0  0  0
   15.6855    1.7473    0.0000 O   0  0  0  0  0  0  0  0  0  0  0  0
    2.5606    5.9445    0.0000 C   0  0  0  0  0  0  0  0  0  0  0  0
   -0.8884    8.1721    0.0000 C   0  0  0  0  0  0  0  0  0  0  0  0
   -1.9042    8.2349    0.0000 O   0  0  0  0  0  0  0  0  0  0  0  0
   -3.6815    8.3797    0.0000 O   0  0  0  0  0  0  0  0  0  0  0  0
   -4.5424    9.6081    0.0000 C   0  0  0  0  0  0  0  0  0  0  0  0
   -7.1223    7.5242    0.0000 C   0  0  0  0  0  0  0  0  0  0  0  0
  -10.1642    5.1366    0.0000 C   0  0  0  0  0  0  0  0  0  0  0  0
   -9.8038   -5.4241    0.0000 C   0  0  0  0  0  0  0  0  0  0  0  0
   -8.9658   -6.0017    0.0000 O   0  0  0  0  0  0  0  0  0  0  0  0
  -10.1409   -5.0694    0.0000 C   0  0  0  0  0  0  0  0  0  0  0  0
   -0.2881   -8.9870    0.0000 H   0  0  0  0  0  0  0  0  0  0  0  0
   -3.0153  -10.2233    0.0000 H   0  0  0  0  0  0  0  0  0  0  0  0
   -1.1548  -10.9232    0.0000 H   0  0  0  0  0  0  0  0  0  0  0  0
   -0.7512   -7.8370    0.0000 H   0  0  0  0  0  0  0  0  0  0  0  0
   -2.6753  -10.1355    0.0000 H   0  0  0  0  0  0  0  0  0  0  0  0
   -4.4579  -10.0540    0.0000 H   0  0  0  0  0  0  0  0  0  0  0  0
   -5.3132   -9.5776    0.0000 H   0  0  0  0  0  0  0  0  0  0  0  0
   -6.3210   -8.1050    0.0000 H   0  0  0  0  0  0  0  0  0  0  0  0
   -6.2933   -6.2695    0.0000 H   0  0  0  0  0  0  0  0  0  0  0  0
   -6.2444   -7.7033    0.0000 H   0  0  0  0  0  0  0  0  0  0  0  0
   -7.4061   -7.1874    0.0000 H   0  0  0  0  0  0  0  0  0  0  0  0
   -7.8646   -6.9211    0.0000 H   0  0  0  0  0  0  0  0  0  0  0  0
   -7.9381   -2.3278    0.0000 H   0  0  0  0  0  0  0  0  0  0  0  0
  -11.4274   -2.5454    0.0000 H   0  0  0  0  0  0  0  0  0  0  0  0
   -8.5587   -0.2192    0.0000 H   0  0  0  0  0  0  0  0  0  0  0  0
  -11.8169    1.0485    0.0000 H   0  0  0  0  0  0  0  0  0  0  0  0
   -8.2366    1.9551    0.0000 H   0  0  0  0  0  0  0  0  0  0  0  0
  -10.6842    3.4708    0.0000 H   0  0  0  0  0  0  0  0  0  0  0  0
   -9.6355    5.7932    0.0000 H   0  0  0  0  0  0  0  0  0  0  0  0
   -8.6248    6.5639    0.0000 H   0  0  0  0  0  0  0  0  0  0  0  0
   -8.3840    6.8415    0.0000 H   0  0  0  0  0  0  0  0  0  0  0  0
   -5.2622    8.1831    0.0000 H   0  0  0  0  0  0  0  0  0  0  0  0
   -3.1460    8.5062    0.0000 H   0  0  0  0  0  0  0  0  0  0  0  0
   -0.8908    4.5571    0.0000 H   0  0  0  0  0  0  0  0  0  0  0  0
    1.0009    6.7272    0.0000 H   0  0  0  0  0  0  0  0  0  0  0  0
    3.9551    3.9120    0.0000 H   0  0  0  0  0  0  0  0  0  0  0  0
    4.4404    2.9218    0.0000 H   0  0  0  0  0  0  0  0  0  0  0  0
    4.4787    2.3728    0.0000 H   0  0  0  0  0  0  0  0  0  0  0  0
    3.9782   -2.2021    0.0000 H   0  0  0  0  0  0  0  0  0  0  0  0
    5.6535   -2.6710    0.0000 H   0  0  0  0  0  0  0  0  0  0  0  0
    4.7610   -1.7052    0.0000 H   0  0  0  0  0  0  0  0  0  0  0  0
    5.9846   -5.4705    0.0000 H   0  0  0  0  0  0  0  0  0  0  0  0
    6.0941   -3.5453    0.0000 H   0  0  0  0  0  0  0  0  0  0  0  0
    3.7257   -7.1571    0.0000 H   0  0  0  0  0  0  0  0  0  0  0  0
    5.4478   -6.2893    0.0000 H   0  0  0  0  0  0  0  0  0  0  0  0
    1.3860   -6.5302    0.0000 H   0  0  0  0  0  0  0  0  0  0  0  0
    2.7483   -7.1015    0.0000 H   0  0  0  0  0  0  0  0  0  0  0  0
   -0.9832   -4.3507    0.0000 H   0  0  0  0  0  0  0  0  0  0  0  0
    4.5552   -0.6807    0.0000 H   0  0  0  0  0  0  0  0  0  0  0  0
    6.7115    1.6383    0.0000 H   0  0  0  0  0  0  0  0  0  0  0  0
    4.1041    3.0763    0.0000 H   0  0  0  0  0  0  0  0  0  0  0  0
    5.8784    3.5892    0.0000 H   0  0  0  0  0  0  0  0  0  0  0  0
    6.7115    1.6383    0.0000 H   0  0  0  0  0  0  0  0  0  0  0  0
    5.5938   -1.1457    0.0000 H   0  0  0  0  0  0  0  0  0  0  0  0
    6.7526   -1.5864    0.0000 H   0  0  0  0  0  0  0  0  0  0  0  0
    7.6413    2.6403    0.0000 H   0  0  0  0  0  0  0  0  0  0  0  0
    6.3541    1.2044    0.0000 H   0  0  0  0  0  0  0  0  0  0  0  0
   10.4589    2.5481    0.0000 H   0  0  0  0  0  0  0  0  0  0  0  0
    8.5718    2.9449    0.0000 H   0  0  0  0  0  0  0  0  0  0  0  0
   11.7093   -0.1036    0.0000 H   0  0  0  0  0  0  0  0  0  0  0  0
   10.1166   -2.3469    0.0000 H   0  0  0  0  0  0  0  0  0  0  0  0
    7.4816   -2.2399    0.0000 H   0  0  0  0  0  0  0  0  0  0  0  0
    9.3687   -2.6367    0.0000 H   0  0  0  0  0  0  0  0  0  0  0  0
   13.6163   -1.5120    0.0000 H   0  0  0  0  0  0  0  0  0  0  0  0
   11.0666   -3.0822    0.0000 H   0  0  0  0  0  0  0  0  0  0  0  0
   13.0005   -3.5420    0.0000 H   0  0  0  0  0  0  0  0  0  0  0  0
   12.7361    3.3447    0.0000 H   0  0  0  0  0  0  0  0  0  0  0  0
   12.8211    0.3515    0.0000 H   0  0  0  0  0  0  0  0  0  0  0  0
   14.2353    3.2956    0.0000 H   0  0  0  0  0  0  0  0  0  0  0  0
   14.1372    0.2972    0.0000 H   0  0  0  0  0  0  0  0  0  0  0  0
   16.4776    3.0212    0.0000 H   0  0  0  0  0  0  0  0  0  0  0  0
    2.0285    7.3469    0.0000 H   0  0  0  0  0  0  0  0  0  0  0  0
    3.5601    4.8260    0.0000 H   0  0  0  0  0  0  0  0  0  0  0  0
    3.8877    6.6436    0.0000 H   0  0  0  0  0  0  0  0  0  0  0  0
   -2.1641    8.9612    0.0000 H   0  0  0  0  0  0  0  0  0  0  0  0
    0.5403    7.7151    0.0000 H   0  0  0  0  0  0  0  0  0  0  0  0
   -0.4315    9.6008    0.0000 H   0  0  0  0  0  0  0  0  0  0  0  0
   -2.4809    9.6197    0.0000 H   0  0  0  0  0  0  0  0  0  0  0  0
   -3.3140   10.4690    0.0000 H   0  0  0  0  0  0  0  0  0  0  0  0
   -5.9426    9.0701    0.0000 H   0  0  0  0  0  0  0  0  0  0  0  0
   -5.4032   10.8365    0.0000 H   0  0  0  0  0  0  0  0  0  0  0  0
   -5.6659    7.8834    0.0000 H   0  0  0  0  0  0  0  0  0  0  0  0
   -8.6106    7.7110    0.0000 H   0  0  0  0  0  0  0  0  0  0  0  0
   -7.1183    9.0242    0.0000 H   0  0  0  0  0  0  0  0  0  0  0  0
  -11.4620    4.3846    0.0000 H   0  0  0  0  0  0  0  0  0  0  0  0
   -9.2221    6.3039    0.0000 H   0  0  0  0  0  0  0  0  0  0  0  0
  -11.0688    6.3331    0.0000 H   0  0  0  0  0  0  0  0  0  0  0  0
  -10.9226   -4.4249    0.0000 H   0  0  0  0  0  0  0  0  0  0  0  0
   -9.1176   -6.7580    0.0000 H   0  0  0  0  0  0  0  0  0  0  0  0
  -10.8030   -6.5429    0.0000 H   0  0  0  0  0  0  0  0  0  0  0  0
  -11.2095   -6.1222    0.0000 H   0  0  0  0  0  0  0  0  0  0  0  0
   -9.5207   -3.7037    0.0000 H   0  0  0  0  0  0  0  0  0  0  0  0
  -11.1936   -4.0009    0.0000 H   0  0  0  0  0  0  0  0  0  0  0  0
  1  2  1  0
  1 69  1  0
  1 70  1  0
  1 71  1  0
  2  3  1  0
  2 41  1  0
  2 72  1  1
  3  4  1  0
  3 73  1  0
  3 74  1  0
  4  5  1  0
  4 75  1  0
  4 76  1  0
  5  6  1  0
  5 42  1  0
  5 77  1  1
  6  7  1  0
  6 78  1  0
  6 79  1  0
  7  8  1  0
  7 67  1  0
  7 80  1  1
  8  9  2  0
  8 66  1  0
  9 10  1  0
  9 81  1  0
 10 11  2  0
 10 82  1  0
 11 12  1  0
 11 83  1  0
 12 13  2  0
 12 84  1  0
 13 14  1  0
 13 85  1  0
 14 15  1  0
 14 86  1  6
 14 65  1  0
 15 16  1  0
 15 87  1  0
 15 88  1  0
 16 17  1  0
 16 89  1  1
 16 64  1  0
 17 18  2  0
 17 19  1  0
 19 20  1  0
 19 62  1  0
 19 90  1  1
 20 21  1  0
 20 61  1  0
 20 91  1  1
 21 22  2  0
 21 60  1  0
 22 23  1  0
 22 92  1  0
 23 24  1  0
 23 93  1  6
 23 59  1  0
 24 25  2  0
 24 26  1  0
 26 27  1  0
 26 94  1  0
 26 95  1  0
 27 28  1  0
 27 96  1  6
 27 44  1  0
 28 29  1  0
 29 30  2  0
 29 31  1  0
 31 32  1  0
 31 36  1  0
 31 97  1  1
 32 33  1  0
 32 98  1  0
 32 99  1  0
 33 34  1  0
 33100  1  0
 33101  1  0
 34 35  1  0
 34102  1  0
 34103  1  0
 35 36  1  0
 35104  1  0
 35105  1  0
 36 37  1  0
 37 38  2  0
 37 39  1  0
 39 40  2  0
 39 41  1  0
 41 42  1  0
 41 43  1  6
 43106  1  0
 44107  1  1
 44 46  1  0
 44 45  1  0
 45108  1  0
 45109  1  0
 45110  1  0
 46 47  1  0
 46111  1  0
 46112  1  0
 47 48  1  0
 47 52  1  0
 47113  1  1
 48 49  1  0
 48114  1  0
 48115  1  0
 49 50  1  0
 49116  1  0
 49117  1  0
 50 51  1  0
 50118  1  6
 50 55  1  0
 51 52  1  0
 51 53  1  0
 51119  1  1
 52120  1  0
 52121  1  0
 53 54  1  0
 54122  1  0
 54123  1  0
 54124  1  0
 55 56  1  0
 56 57  1  0
 56125  1  0
 56126  1  0
 57 58  1  0
 57127  1  0
 57128  1  0
 58129  1  0
 59130  1  0
 59131  1  0
 59132  1  0
 60133  1  0
 60134  1  0
 60135  1  0
 61136  1  0
 62 63  1  0
 63137  1  0
 63138  1  0
 63139  1  0
 64140  1  0
 64141  1  0
 64142  1  0
 65143  1  0
 65144  1  0
 65145  1  0
 66146  1  0
 66147  1  0
 66148  1  0
 67 68  1  0
 68149  1  0
 68150  1  0
 68151  1  0
M  END
$$$$

     RDKit          2D

 39 41  0  0  0  0  0  0  0  0999 V2000
    6.3038    0.7230    0.0000 C   0  0  0  0  0  0  0  0  0  0  0  0
    5.1913    1.7291    0.0000 C   0  0  0  0  0  0  0  0  0  0  0  0
    3.7637    1.2688    0.0000 C   0  0  0  0  0  0  0  0  0  0  0  0
    3.4485   -0.1977    0.0000 C   0  0  0  0  0  0  0  0  0  0  0  0
    4.5610   -1.2039    0.0000 C   0  0  0  0  0  0  0  0  0  0  0  0
    5.9886   -0.7436    0.0000 C   0  0  0  0  0  0  0  0  0  0  0  0
    4.2459   -2.6704    0.0000 Cl  0  0  0  0  0  0  0  0  0  0  0  0
    2.0209   -0.6581    0.0000 C   0  0  0  0  0  0  0  0  0  0  0  0
    0.5933   -1.1184    0.0000 O   0  0  0  0  0  0  0  0  0  0  0  0
   -0.5192   -0.1123    0.0000 C   0  0  0  0  0  0  0  0  0  0  0  0
   -1.6316    0.8939    0.0000 C   0  0  0  0  0  0  0  0  0  0  0  0
   -2.7441    1.9001    0.0000 N   0  0  0  0  0  0  0  0  0  0  0  0
   -2.5840    3.3915    0.0000 C   0  0  0  0  0  0  0  0  0  0  0  0
   -3.9530    4.0047    0.0000 C   0  0  0  0  0  0  0  0  0  0  0  0
   -4.9591    2.8922    0.0000 N   0  0  0  0  0  0  0  0  0  0  0  0
   -4.2120    1.5915    0.0000 C   0  0  0  0  0  0  0  0  0  0  0  0
   -1.5253   -1.2247    0.0000 C   0  0  0  0  0  0  0  0  0  0  0  0
   -2.9919   -0.9096    0.0000 C   0  0  0  0  0  0  0  0  0  0  0  0
   -3.9980   -2.0221    0.0000 C   0  0  0  0  0  0  0  0  0  0  0  0
   -3.5377   -3.4497    0.0000 C   0  0  0  0  0  0  0  0  0  0  0  0
   -2.0712   -3.7648    0.0000 C   0  0  0  0  0  0  0  0  0  0  0  0
   -1.0650   -2.6524    0.0000 C   0  0  0  0  0  0  0  0  0  0  0  0
   -4.5439   -4.5622    0.0000 Cl  0  0  0  0  0  0  0  0  0  0  0  0
   -3.2637   -0.0666    0.0000 Cl  0  0  0  0  0  0  0  0  0  0  0  0
    2.6512    2.2750    0.0000 Cl  0  0  0  0  0  0  0  0  0  0  0  0
    7.7314    1.1833    0.0000 H   0  0  0  0  0  0  0  0  0  0  0  0
    5.5064    3.1957    0.0000 H   0  0  0  0  0  0  0  0  0  0  0  0
    7.1011   -1.7497    0.0000 H   0  0  0  0  0  0  0  0  0  0  0  0
    1.5606    0.7695    0.0000 H   0  0  0  0  0  0  0  0  0  0  0  0
    2.4813   -2.0857    0.0000 H   0  0  0  0  0  0  0  0  0  0  0  0
    0.4870    1.0002    0.0000 H   0  0  0  0  0  0  0  0  0  0  0  0
   -2.3671    0.4003    0.0000 H   0  0  0  0  0  0  0  0  0  0  0  0
   -0.6255    2.0064    0.0000 H   0  0  0  0  0  0  0  0  0  0  0  0
   -1.2833    4.1386    0.0000 H   0  0  0  0  0  0  0  0  0  0  0  0
   -4.2616    5.4726    0.0000 H   0  0  0  0  0  0  0  0  0  0  0  0
   -4.8252    0.2225    0.0000 H   0  0  0  0  0  0  0  0  0  0  0  0
   -5.4646   -1.7070    0.0000 H   0  0  0  0  0  0  0  0  0  0  0  0
   -1.6108   -5.1924    0.0000 H   0  0  0  0  0  0  0  0  0  0  0  0
    0.4015   -2.9675    0.0000 H   0  0  0  0  0  0  0  0  0  0  0  0
  1  2  2  0
  1  6  1  0
  1 26  1  0
  2  3  1  0
  2 27  1  0
  3  4  2  0
  3 25  1  0
  4  5  1  0
  4  8  1  0
  5  6  2  0
  5  7  1  0
  6 28  1  0
  8  9  1  0
  8 29  1  0
  8 30  1  0
  9 10  1  0
 10 11  1  0
 10 17  1  0
 10 31  1  1
 11 12  1  0
 11 32  1  0
 11 33  1  0
 12 13  1  0
 12 16  1  0
 13 14  2  0
 13 34  1  0
 14 15  1  0
 14 35  1  0
 15 16  2  0
 16 36  1  0
 17 18  2  0
 17 22  1  0
 18 19  1  0
 18 24  1  0
 19 20  2  0
 19 37  1  0
 20 21  1  0
 20 23  1  0
 21 22  2  0
 21 38  1  0
 22 39  1  0
M  END
$$$$

     RDKit          2D

 51 53  0  0  0  0  0  0  0  0999 V2000
   -4.0900   -2.3317    0.0000 C   0  0  0  0  0  0  0  0  0  0  0  0
   -4.2607   -0.8414    0.0000 C   0  0  0  0  0  0  0  0  0  0  0  0
   -4.9307    0.5006    0.0000 C   0  0  0  0  0  0  0  0  0  0  0  0
   -4.1035    1.7519    0.0000 C   0  0  0  0  0  0  0  0  0  0  0  0
   -2.6062    1.6611    0.0000 C   0  0  0  0  0  0  0  0  0  0  0  0
   -1.9362    0.3191    0.0000 C   0  0  0  0  0  0  0  0  0  0  0  0
   -2.7634   -0.9322    0.0000 C   0  0  0  0  0  0  0  0  0  0  0  0
   -2.0934   -2.2742    0.0000 C   0  0  0  0  0  0  0  0  0  0  0  0
   -0.5961   -2.3650    0.0000 C   0  0  0  0  0  0  0  0  0  0  0  0
    0.2311   -1.1137    0.0000 C   0  0  0  0  0  0  0  0  0  0  0  0
   -0.4389    0.2283    0.0000 C   0  0  0  0  0  0  0  0  0  0  0  0
    1.7283   -1.2045    0.0000 N   0  0  0  0  0  0  0  0  0  0  0  0
    2.5556    0.0468    0.0000 C   0  0  0  0  0  0  0  0  0  0  0  0
    1.8856    1.3888    0.0000 O   0  0  0  0  0  0  0  0  0  0  0  0
    4.0528   -0.0440    0.0000 C   0  0  0  0  0  0  0  0  0  0  0  0
    4.7229   -1.3860    0.0000 C   0  0  0  0  0  0  0  0  0  0  0  0
    6.2201   -1.4768    0.0000 C   0  0  0  0  0  0  0  0  0  0  0  0
    7.0473   -0.2255    0.0000 C   0  0  0  0  0  0  0  0  0  0  0  0
    6.3773    1.1165    0.0000 C   0  0  0  0  0  0  0  0  0  0  0  0
    4.8801    1.2073    0.0000 C   0  0  0  0  0  0  0  0  0  0  0  0
    8.5446   -0.3163    0.0000 C   0  0  0  0  0  0  0  0  0  0  0  0
    9.2146   -1.6583    0.0000 O   0  0  0  0  0  0  0  0  0  0  0  0
    9.3718    0.9350    0.0000 O   0  0  0  0  0  0  0  0  0  0  0  0
   -2.7768    3.1514    0.0000 C   0  0  0  0  0  0  0  0  0  0  0  0
   -1.1682    2.0879    0.0000 C   0  0  0  0  0  0  0  0  0  0  0  0
   -5.6987   -1.2682    0.0000 C   0  0  0  0  0  0  0  0  0  0  0  0
   -5.5484   -2.6827    0.0000 H   0  0  0  0  0  0  0  0  0  0  0  0
   -2.8854   -2.4897    0.0000 H   0  0  0  0  0  0  0  0  0  0  0  0
   -3.9194   -3.8220    0.0000 H   0  0  0  0  0  0  0  0  0  0  0  0
   -6.2358   -0.2387    0.0000 H   0  0  0  0  0  0  0  0  0  0  0  0
   -6.0193    1.5326    0.0000 H   0  0  0  0  0  0  0  0  0  0  0  0
   -5.4794    2.3493    0.0000 H   0  0  0  0  0  0  0  0  0  0  0  0
   -4.0137    2.5440    0.0000 H   0  0  0  0  0  0  0  0  0  0  0  0
   -2.9206   -3.5255    0.0000 H   0  0  0  0  0  0  0  0  0  0  0  0
    0.0739   -3.7070    0.0000 H   0  0  0  0  0  0  0  0  0  0  0  0
    0.3883    1.4796    0.0000 H   0  0  0  0  0  0  0  0  0  0  0  0
    2.3984   -2.5465    0.0000 H   0  0  0  0  0  0  0  0  0  0  0  0
    3.8956   -2.6373    0.0000 H   0  0  0  0  0  0  0  0  0  0  0  0
    6.8901   -2.8188    0.0000 H   0  0  0  0  0  0  0  0  0  0  0  0
    7.2045    2.3678    0.0000 H   0  0  0  0  0  0  0  0  0  0  0  0
    4.2100    2.5493    0.0000 H   0  0  0  0  0  0  0  0  0  0  0  0
   10.8691    0.8443    0.0000 H   0  0  0  0  0  0  0  0  0  0  0  0
   -1.3185    3.5024    0.0000 H   0  0  0  0  0  0  0  0  0  0  0  0
   -3.5739    3.1579    0.0000 H   0  0  0  0  0  0  0  0  0  0  0  0
   -2.9474    4.6417    0.0000 H   0  0  0  0  0  0  0  0  0  0  0  0
   -1.4165    3.5672    0.0000 H   0  0  0  0  0  0  0  0  0  0  0  0
   -0.4061    0.7959    0.0000 H   0  0  0  0  0  0  0  0  0  0  0  0
    0.2698    2.5147    0.0000 H   0  0  0  0  0  0  0  0  0  0  0  0
   -5.4503   -2.7475    0.0000 H   0  0  0  0  0  0  0  0  0  0  0  0
   -6.2976    0.1070    0.0000 H   0  0  0  0  0  0  0  0  0  0  0  0
   -7.1367   -1.6950    0.0000 H   0  0  0  0  0  0  0  0  0  0  0  0
  1  2  1  0
  1 27  1  0
  1 28  1  0
  1 29  1  0
  2  3  1  0
  2  7  1  0
  2 26  1  0
  3  4  1  0
  3 30  1  0
  3 31  1  0
  4  5  1  0
  4 32  1  0
  4 33  1  0
  5  6  1  0
  5 24  1  0
  5 25  1  0
  6  7  2  0
  6 11  1  0
  7  8  1  0
  8  9  2  0
  8 34  1  0
  9 10  1  0
  9 35  1  0
 10 11  2  0
 10 12  1  0
 11 36  1  0
 12 13  1  0
 12 37  1  0
 13 14  2  0
 13 15  1  0
 15 16  2  0
 15 20  1  0
 16 17  1  0
 16 38  1  0
 17 18  2  0
 17 39  1  0
 18 19  1  0
 18 21  1  0
 19 20  2  0
 19 40  1  0
 20 41  1  0
 21 22  2  0
 21 23  1  0
 23 42  1  0
 24 43  1  0
 24 44  1  0
 24 45  1  0
 25 46  1  0
 25 47  1  0
 25 48  1  0
 26 49  1  0
 26 50  1  0
 26 51  1  0
M  END
$$$$

     RDKit          2D

 48 52  0  0  0  0  0  0  0  0999 V2000
    5.1038   -0.2299    0.0000 C   0  0  0  0  0  0  0  0  0  0  0  0
    4.5731    1.1730    0.0000 C   0  0  0  0  0  0  0  0  0  0  0  0
    3.0748    1.1019    0.0000 C   0  0  0  0  0  0  0  0  0  0  0  0
    2.6795   -0.3451    0.0000 C   0  0  0  0  0  0  0  0  0  0  0  0
    3.9335   -1.1682    0.0000 C   0  0  0  0  0  0  0  0  0  0  0  0
    1.1812   -0.4162    0.0000 C   0  0  0  0  0  0  0  0  0  0  0  0
    0.6505    0.9867    0.0000 C   0  0  0  0  0  0  0  0  0  0  0  0
    1.8208    1.9250    0.0000 C   0  0  0  0  0  0  0  0  0  0  0  0
    0.3225    1.8538    0.0000 C   0  0  0  0  0  0  0  0  0  0  0  0
   -0.0728    0.4069    0.0000 C   0  0  0  0  0  0  0  0  0  0  0  0
   -1.4705    0.9513    0.0000 C   0  0  0  0  0  0  0  0  0  0  0  0
   -1.6979    2.4339    0.0000 C   0  0  0  0  0  0  0  0  0  0  0  0
   -3.0956    2.9784    0.0000 C   0  0  0  0  0  0  0  0  0  0  0  0
   -4.2660    2.0401    0.0000 C   0  0  0  0  0  0  0  0  0  0  0  0
   -4.0386    0.5574    0.0000 C   0  0  0  0  0  0  0  0  0  0  0  0
   -2.6409    0.0130    0.0000 C   0  0  0  0  0  0  0  0  0  0  0  0
   -5.6637    2.5845    0.0000 O   0  0  0  0  0  0  0  0  0  0  0  0
   -0.7603   -0.9263    0.0000 C   0  0  0  0  0  0  0  0  0  0  0  0
   -2.2586   -0.9974    0.0000 C   0  0  0  0  0  0  0  0  0  0  0  0
   -2.9462   -2.3306    0.0000 C   0  0  0  0  0  0  0  0  0  0  0  0
   -2.1354   -3.5926    0.0000 C   0  0  0  0  0  0  0  0  0  0  0  0
   -0.6371   -3.5214    0.0000 C   0  0  0  0  0  0  0  0  0  0  0  0
    0.0504   -2.1883    0.0000 C   0  0  0  0  0  0  0  0  0  0  0  0
   -2.8229   -4.9258    0.0000 O   0  0  0  0  0  0  0  0  0  0  0  0
    6.4436    0.4445    0.0000 H   0  0  0  0  0  0  0  0  0  0  0  0
    5.9146   -1.4919    0.0000 H   0  0  0  0  0  0  0  0  0  0  0  0
    4.5282    2.6724    0.0000 H   0  0  0  0  0  0  0  0  0  0  0  0
    6.0239    1.5542    0.0000 H   0  0  0  0  0  0  0  0  0  0  0  0
    3.2908    2.5863    0.0000 H   0  0  0  0  0  0  0  0  0  0  0  0
    2.2842   -1.7921    0.0000 H   0  0  0  0  0  0  0  0  0  0  0  0
    4.9889   -2.2340    0.0000 H   0  0  0  0  0  0  0  0  0  0  0  0
    3.1324   -2.4364    0.0000 H   0  0  0  0  0  0  0  0  0  0  0  0
    0.7355   -1.6905    0.0000 H   0  0  0  0  0  0  0  0  0  0  0  0
   -0.1271    0.8113    0.0000 H   0  0  0  0  0  0  0  0  0  0  0  0
   -0.4416    2.0150    0.0000 H   0  0  0  0  0  0  0  0  0  0  0  0
    1.7497    3.4233    0.0000 H   0  0  0  0  0  0  0  0  0  0  0  0
    0.4084    3.3514    0.0000 H   0  0  0  0  0  0  0  0  0  0  0  0
   -1.0553    2.4468    0.0000 H   0  0  0  0  0  0  0  0  0  0  0  0
   -0.5276    3.3722    0.0000 H   0  0  0  0  0  0  0  0  0  0  0  0
   -3.3230    4.4610    0.0000 H   0  0  0  0  0  0  0  0  0  0  0  0
   -5.2089   -0.3808    0.0000 H   0  0  0  0  0  0  0  0  0  0  0  0
   -2.7790   -1.4806    0.0000 H   0  0  0  0  0  0  0  0  0  0  0  0
   -6.8340    1.6463    0.0000 H   0  0  0  0  0  0  0  0  0  0  0  0
   -3.3507    0.0309    0.0000 H   0  0  0  0  0  0  0  0  0  0  0  0
   -4.4445   -2.4018    0.0000 H   0  0  0  0  0  0  0  0  0  0  0  0
    0.1737   -4.7834    0.0000 H   0  0  0  0  0  0  0  0  0  0  0  0
    1.5463   -2.3003    0.0000 H   0  0  0  0  0  0  0  0  0  0  0  0
   -2.0121   -6.1877    0.0000 H   0  0  0  0  0  0  0  0  0  0  0  0
  1  2  1  0
  1  5  1  0
  1 25  1  0
  1 26  1  0
  2  3  1  0
  2 27  1  0
  2 28  1  0
  3  4  1  0
  3  8  1  0
  3 29  1  6
  4  5  1  0
  4  6  1  0
  4 30  1  1
  5 31  1  0
  5 32  1  0
  6  7  1  0
  6 10  1  0
  6 33  1  1
  7  8  1  0
  7 34  1  0
  7 35  1  0
  8  9  1  0
  8 36  1  1
  9 10  1  0
  9 37  1  0
  9 38  1  0
 10 11  1  0
 10 18  1  0
 11 12  2  0
 11 16  1  0
 12 13  1  0
 12 39  1  0
 13 14  2  0
 13 40  1  0
 14 15  1  0
 14 17  1  0
 15 16  2  0
 15 41  1  0
 16 42  1  0
 17 43  1  0
 18 19  2  0
 18 23  1  0
 19 20  1  0
 19 44  1  0
 20 21  2  0
 20 45  1  0
 21 22  1  0
 21 24  1  0
 22 23  2  0
 22 46  1  0
 23 47  1  0
 24 48  1  0
M  END
$$$$

     RDKit          2D

 56 55  0  0  0  0  0  0  0  0999 V2000
   12.4729   -0.1578    0.0000 C   0  0  0  0  0  0  0  0  0  0  0  0
   10.9732   -0.1262    0.0000 C   0  0  0  0  0  0  0  0  0  0  0  0
    9.4735   -0.0946    0.0000 C   0  0  0  0  0  0  0  0  0  0  0  0
    7.9739   -0.0630    0.0000 C   0  0  0  0  0  0  0  0  0  0  0  0
    6.4742   -0.0314    0.0000 C   0  0  0  0  0  0  0  0  0  0  0  0
    4.9745    0.0002    0.0000 C   0  0  0  0  0  0  0  0  0  0  0  0
    3.4749    0.0318    0.0000 C   0  0  0  0  0  0  0  0  0  0  0  0
    1.9752    0.0634    0.0000 C   0  0  0  0  0  0  0  0  0  0  0  0
    0.4755    0.0950    0.0000 C   0  0  0  0  0  0  0  0  0  0  0  0
   -1.0241    0.1266    0.0000 C   0  0  0  0  0  0  0  0  0  0  0  0
   -2.5238    0.1582    0.0000 C   0  0  0  0  0  0  0  0  0  0  0  0
   -4.0235    0.1898    0.0000 C   0  0  0  0  0  0  0  0  0  0  0  0
   -5.5231    0.2214    0.0000 C   0  0  0  0  0  0  0  0  0  0  0  0
   -7.0228    0.2530    0.0000 C   0  0  0  0  0  0  0  0  0  0  0  0
   -8.5225    0.2846    0.0000 N   0  0  0  0  0  0  0  0  0  0  0  0
   -9.3784    1.5165    0.0000 C   0  0  0  0  0  0  0  0  0  0  0  0
  -10.8144    1.0831    0.0000 C   0  0  0  0  0  0  0  0  0  0  0  0
  -10.8460   -0.4166    0.0000 N   0  0  0  0  0  0  0  0  0  0  0  0
   -9.4295   -0.9100    0.0000 C   0  0  0  0  0  0  0  0  0  0  0  0
  -12.0778   -1.2725    0.0000 C   0  0  0  0  0  0  0  0  0  0  0  0
    0.0000    3.9330    0.0000 Cl  0  0  0  0  0  0  0  0  0  0  0  0
   12.5045    1.3419    0.0000 H   0  0  0  0  0  0  0  0  0  0  0  0
   12.4413   -1.6574    0.0000 H   0  0  0  0  0  0  0  0  0  0  0  0
   13.9725   -0.1894    0.0000 H   0  0  0  0  0  0  0  0  0  0  0  0
   10.9416   -1.6258    0.0000 H   0  0  0  0  0  0  0  0  0  0  0  0
   11.0048    1.3735    0.0000 H   0  0  0  0  0  0  0  0  0  0  0  0
    9.5051    1.4051    0.0000 H   0  0  0  0  0  0  0  0  0  0  0  0
    9.4419   -1.5942    0.0000 H   0  0  0  0  0  0  0  0  0  0  0  0
    7.9423   -1.5626    0.0000 H   0  0  0  0  0  0  0  0  0  0  0  0
    8.0055    1.4367    0.0000 H   0  0  0  0  0  0  0  0  0  0  0  0
    6.5058    1.4683    0.0000 H   0  0  0  0  0  0  0  0  0  0  0  0
    6.4426   -1.5310    0.0000 H   0  0  0  0  0  0  0  0  0  0  0  0
    4.9429   -1.4994    0.0000 H   0  0  0  0  0  0  0  0  0  0  0  0
    5.0061    1.4999    0.0000 H   0  0  0  0  0  0  0  0  0  0  0  0
    3.5065    1.5315    0.0000 H   0  0  0  0  0  0  0  0  0  0  0  0
    3.4433   -1.4678    0.0000 H   0  0  0  0  0  0  0  0  0  0  0  0
    1.9436   -1.4362    0.0000 H   0  0  0  0  0  0  0  0  0  0  0  0
    2.0068    1.5631    0.0000 H   0  0  0  0  0  0  0  0  0  0  0  0
    0.5071    1.5947    0.0000 H   0  0  0  0  0  0  0  0  0  0  0  0
    0.4439   -1.4046    0.0000 H   0  0  0  0  0  0  0  0  0  0  0  0
   -1.0557   -1.3730    0.0000 H   0  0  0  0  0  0  0  0  0  0  0  0
   -0.9925    1.6263    0.0000 H   0  0  0  0  0  0  0  0  0  0  0  0
   -2.4922    1.6579    0.0000 H   0  0  0  0  0  0  0  0  0  0  0  0
   -2.5554   -1.3414    0.0000 H   0  0  0  0  0  0  0  0  0  0  0  0
   -4.0551   -1.3098    0.0000 H   0  0  0  0  0  0  0  0  0  0  0  0
   -3.9919    1.6895    0.0000 H   0  0  0  0  0  0  0  0  0  0  0  0
   -5.4915    1.7211    0.0000 H   0  0  0  0  0  0  0  0  0  0  0  0
   -5.5547   -1.2782    0.0000 H   0  0  0  0  0  0  0  0  0  0  0  0
   -7.0544   -1.2466    0.0000 H   0  0  0  0  0  0  0  0  0  0  0  0
   -6.9912    1.7527    0.0000 H   0  0  0  0  0  0  0  0  0  0  0  0
   -8.8849    2.9330    0.0000 H   0  0  0  0  0  0  0  0  0  0  0  0
  -12.0091    1.9901    0.0000 H   0  0  0  0  0  0  0  0  0  0  0  0
   -8.9961   -2.3461    0.0000 H   0  0  0  0  0  0  0  0  0  0  0  0
  -12.9338   -0.0407    0.0000 H   0  0  0  0  0  0  0  0  0  0  0  0
  -11.2219   -2.5043    0.0000 H   0  0  0  0  0  0  0  0  0  0  0  0
  -13.3097   -2.1284    0.0000 H   0  0  0  0  0  0  0  0  0  0  0  0
  1  2  1  0
  1 22  1  0
  1 23  1  0
  1 24  1  0
  2  3  1  0
  2 25  1  0
  2 26  1  0
  3  4  1  0
  3 27  1  0
  3 28  1  0
  4  5  1  0
  4 29  1  0
  4 30  1  0
  5  6  1  0
  5 31  1  0
  5 32  1  0
  6  7  1  0
  6 33  1  0
  6 34  1  0
  7  8  1  0
  7 35  1  0
  7 36  1  0
  8  9  1  0
  8 37  1  0
  8 38  1  0
  9 10  1  0
  9 39  1  0
  9 40  1  0
 10 11  1  0
 10 41  1  0
 10 42  1  0
 11 12  1  0
 11 43  1  0
 11 44  1  0
 12 13  1  0
 12 45  1  0
 12 46  1  0
 13 14  1  0
 13 47  1  0
 13 48  1  0
 14 15  1  0
 14 49  1  0
 14 50  1  0
 15 16  1  0
 15 19  1  0
 16 17  2  0
 16 51  1  0
 17 18  1  0
 17 52  1  0
 18 19  2  0
 18 20  1  0
 19 53  1  0
 20 54  1  0
 20 55  1  0
 20 56  1  0
M  CHG  2  18   1  21  -1
M  END
$$$$

     RDKit          2D

152159  0  0  1  0  0  0  0  0999 V2000
  -14.3645    5.1131    0.0000 C   0  0  0  0  0  0  0  0  0  0  0  0
  -13.5760    3.8371    0.0000 C   0  0  0  0  0  0  0  0  0  0  0  0
  -14.9695    3.2821    0.0000 C   0  0  0  0  0  0  0  0  0  0  0  0
  -15.1857    1.7978    0.0000 C   0  0  0  0  0  0  0  0  0  0  0  0
  -14.0082    0.8684    0.0000 C   0  0  0  0  0  0  0  0  0  0  0  0
  -12.6147    1.4234    0.0000 C   0  0  0  0  0  0  0  0  0  0  0  0
  -12.3986    2.9078    0.0000 O   0  0  0  0  0  0  0  0  0  0  0  0
  -12.3101   -0.0453    0.0000 O   0  0  0  0  0  0  0  0  0  0  0  0
  -10.8859   -0.5159    0.0000 C   0  0  0  0  0  0  0  0  0  0  0  0
   -9.3865   -0.4710    0.0000 C   0  0  0  0  0  0  0  0  0  0  0  0
   -8.5980   -1.7470    0.0000 C   0  0  0  0  0  0  0  0  0  0  0  0
   -9.3088   -3.0679    0.0000 O   0  0  0  0  0  0  0  0  0  0  0  0
  -10.8081   -3.1128    0.0000 C   0  0  0  0  0  0  0  0  0  0  0  0
  -11.5966   -1.8368    0.0000 C   0  0  0  0  0  0  0  0  0  0  0  0
  -12.7163   -2.8350    0.0000 O   0  0  0  0  0  0  0  0  0  0  0  0
  -10.5035   -4.5816    0.0000 C   0  0  0  0  0  0  0  0  0  0  0  0
   -7.4206   -2.6764    0.0000 O   0  0  0  0  0  0  0  0  0  0  0  0
   -6.0270   -2.1214    0.0000 C   0  0  0  0  0  0  0  0  0  0  0  0
   -4.8496   -3.0508    0.0000 C   0  0  0  0  0  0  0  0  0  0  0  0
   -3.4561   -2.4958    0.0000 C   0  0  0  0  0  0  0  0  0  0  0  0
   -2.2786   -3.4251    0.0000 C   0  0  0  0  0  0  0  0  0  0  0  0
   -0.8851   -2.8701    0.0000 C   0  0  0  0  0  0  0  0  0  0  0  0
   -0.6690   -1.3858    0.0000 C   0  0  0  0  0  0  0  0  0  0  0  0
    0.7246   -0.8308    0.0000 C   0  0  0  0  0  0  0  0  0  0  0  0
    0.7582    0.6688    0.0000 O   0  0  0  0  0  0  0  0  0  0  0  0
    1.9020   -1.7601    0.0000 C   0  0  0  0  0  0  0  0  0  0  0  0
    1.6859   -3.2445    0.0000 C   0  0  0  0  0  0  0  0  0  0  0  0
    0.2923   -3.7995    0.0000 C   0  0  0  0  0  0  0  0  0  0  0  0
    3.1852   -3.1996    0.0000 C   0  0  0  0  0  0  0  0  0  0  0  0
    3.2301   -4.6989    0.0000 C   0  0  0  0  0  0  0  0  0  0  0  0
    1.9541   -5.4875    0.0000 O   0  0  0  0  0  0  0  0  0  0  0  0
    4.5510   -5.4097    0.0000 C   0  0  0  0  0  0  0  0  0  0  0  0
    3.8402   -6.7306    0.0000 C   0  0  0  0  0  0  0  0  0  0  0  0
    5.1611   -7.4414    0.0000 C   0  0  0  0  0  0  0  0  0  0  0  0
    3.1294   -8.0515    0.0000 O   0  0  0  0  0  0  0  0  0  0  0  0
    5.8719   -6.1205    0.0000 O   0  0  0  0  0  0  0  0  0  0  0  0
    3.1403   -1.7003    0.0000 O   0  0  0  0  0  0  0  0  0  0  0  0
    4.4163   -0.9117    0.0000 C   0  0  0  0  0  0  0  0  0  0  0  0
    2.6128   -0.4392    0.0000 O   0  0  0  0  0  0  0  0  0  0  0  0
    1.8242    0.8368    0.0000 C   0  0  0  0  0  0  0  0  0  0  0  0
    3.2178    1.3918    0.0000 C   0  0  0  0  0  0  0  0  0  0  0  0
    3.4339    2.8761    0.0000 C   0  0  0  0  0  0  0  0  0  0  0  0
    2.2565    3.8055    0.0000 C   0  0  0  0  0  0  0  0  0  0  0  0
    0.8630    3.2505    0.0000 C   0  0  0  0  0  0  0  0  0  0  0  0
    0.6468    1.7661    0.0000 O   0  0  0  0  0  0  0  0  0  0  0  0
    0.5584    4.7192    0.0000 C   0  0  0  0  0  0  0  0  0  0  0  0
    3.3762    4.8036    0.0000 O   0  0  0  0  0  0  0  0  0  0  0  0
    4.8582    2.4055    0.0000 O   0  0  0  0  0  0  0  0  0  0  0  0
    5.9779    3.4036    0.0000 C   0  0  0  0  0  0  0  0  0  0  0  0
    6.7664    2.1276    0.0000 C   0  0  0  0  0  0  0  0  0  0  0  0
    8.2658    2.1725    0.0000 C   0  0  0  0  0  0  0  0  0  0  0  0
    8.9765    3.4934    0.0000 C   0  0  0  0  0  0  0  0  0  0  0  0
    8.1880    4.7694    0.0000 C   0  0  0  0  0  0  0  0  0  0  0  0
    6.6887    4.7245    0.0000 O   0  0  0  0  0  0  0  0  0  0  0  0
    9.5815    5.3244    0.0000 C   0  0  0  0  0  0  0  0  0  0  0  0
   10.1540    2.5641    0.0000 O   0  0  0  0  0  0  0  0  0  0  0  0
    8.0496    0.6882    0.0000 O   0  0  0  0  0  0  0  0  0  0  0  0
    9.2270   -0.2412    0.0000 C   0  0  0  0  0  0  0  0  0  0  0  0
    9.9378    1.0797    0.0000 C   0  0  0  0  0  0  0  0  0  0  0  0
   11.4371    1.1246    0.0000 C   0  0  0  0  0  0  0  0  0  0  0  0
   12.2257   -0.1514    0.0000 C   0  0  0  0  0  0  0  0  0  0  0  0
   11.5149   -1.4723    0.0000 C   0  0  0  0  0  0  0  0  0  0  0  0
   10.0156   -1.5172    0.0000 O   0  0  0  0  0  0  0  0  0  0  0  0
   12.9392   -1.9429    0.0000 C   0  0  0  0  0  0  0  0  0  0  0  0
   13.3454    0.8468    0.0000 O   0  0  0  0  0  0  0  0  0  0  0  0
   12.8307    1.6796    0.0000 C   0  0  0  0  0  0  0  0  0  0  0  0
   11.1326    2.5934    0.0000 O   0  0  0  0  0  0  0  0  0  0  0  0
   -1.8464   -0.4564    0.0000 C   0  0  0  0  0  0  0  0  0  0  0  0
   -3.2399   -1.0114    0.0000 C   0  0  0  0  0  0  0  0  0  0  0  0
   -4.4173   -0.0821    0.0000 C   0  0  0  0  0  0  0  0  0  0  0  0
   -5.8109   -0.6371    0.0000 C   0  0  0  0  0  0  0  0  0  0  0  0
   -6.9883    0.2923    0.0000 C   0  0  0  0  0  0  0  0  0  0  0  0
   -4.2012    1.4023    0.0000 O   0  0  0  0  0  0  0  0  0  0  0  0
   -1.6302    1.0279    0.0000 O   0  0  0  0  0  0  0  0  0  0  0  0
  -15.8964    0.4769    0.0000 O   0  0  0  0  0  0  0  0  0  0  0  0
  -16.4688    3.2372    0.0000 O   0  0  0  0  0  0  0  0  0  0  0  0
  -13.0885    5.9017    0.0000 H   0  0  0  0  0  0  0  0  0  0  0  0
  -15.0887    4.7799    0.0000 H   0  0  0  0  0  0  0  0  0  0  0  0
  -15.1531    6.3891    0.0000 H   0  0  0  0  0  0  0  0  0  0  0  0
  -12.4563    4.8353    0.0000 H   0  0  0  0  0  0  0  0  0  0  0  0
  -15.2253    4.0371    0.0000 H   0  0  0  0  0  0  0  0  0  0  0  0
  -16.6567    2.0913    0.0000 H   0  0  0  0  0  0  0  0  0  0  0  0
  -15.1279   -0.1297    0.0000 H   0  0  0  0  0  0  0  0  0  0  0  0
  -13.3811   -0.4942    0.0000 H   0  0  0  0  0  0  0  0  0  0  0  0
  -11.1320    1.6508    0.0000 H   0  0  0  0  0  0  0  0  0  0  0  0
  -10.4904    0.9310    0.0000 H   0  0  0  0  0  0  0  0  0  0  0  0
   -7.9930    0.0840    0.0000 H   0  0  0  0  0  0  0  0  0  0  0  0
   -9.6911    0.9977    0.0000 H   0  0  0  0  0  0  0  0  0  0  0  0
   -7.3650   -0.8928    0.0000 H   0  0  0  0  0  0  0  0  0  0  0  0
  -12.2016   -3.6678    0.0000 H   0  0  0  0  0  0  0  0  0  0  0  0
  -12.8786   -1.0579    0.0000 H   0  0  0  0  0  0  0  0  0  0  0  0
  -14.1406   -2.3644    0.0000 H   0  0  0  0  0  0  0  0  0  0  0  0
  -11.9723   -4.8862    0.0000 H   0  0  0  0  0  0  0  0  0  0  0  0
   -9.0348   -4.2770    0.0000 H   0  0  0  0  0  0  0  0  0  0  0  0
  -10.1989   -6.0504    0.0000 H   0  0  0  0  0  0  0  0  0  0  0  0
   -5.0657   -4.5351    0.0000 H   0  0  0  0  0  0  0  0  0  0  0  0
   -2.4948   -4.9095    0.0000 H   0  0  0  0  0  0  0  0  0  0  0  0
    3.3978   -1.8721    0.0000 H   0  0  0  0  0  0  0  0  0  0  0  0
    1.8091   -4.7394    0.0000 H   0  0  0  0  0  0  0  0  0  0  0  0
   -0.8274   -4.7976    0.0000 H   0  0  0  0  0  0  0  0  0  0  0  0
    1.0809   -5.0755    0.0000 H   0  0  0  0  0  0  0  0  0  0  0  0
    4.6845   -3.1547    0.0000 H   0  0  0  0  0  0  0  0  0  0  0  0
    5.2618   -4.0888    0.0000 H   0  0  0  0  0  0  0  0  0  0  0  0
    2.4425   -6.1861    0.0000 H   0  0  0  0  0  0  0  0  0  0  0  0
    4.6167   -8.8391    0.0000 H   0  0  0  0  0  0  0  0  0  0  0  0
    6.1704   -6.3317    0.0000 H   0  0  0  0  0  0  0  0  0  0  0  0
    6.4820   -8.1522    0.0000 H   0  0  0  0  0  0  0  0  0  0  0  0
    3.7566   -9.4141    0.0000 H   0  0  0  0  0  0  0  0  0  0  0  0
    7.1479   -5.3319    0.0000 H   0  0  0  0  0  0  0  0  0  0  0  0
    3.4781    0.2587    0.0000 H   0  0  0  0  0  0  0  0  0  0  0  0
    5.2049   -2.1877    0.0000 H   0  0  0  0  0  0  0  0  0  0  0  0
    5.6923   -0.1232    0.0000 H   0  0  0  0  0  0  0  0  0  0  0  0
    0.4212    0.3063    0.0000 H   0  0  0  0  0  0  0  0  0  0  0  0
    4.7114    1.2536    0.0000 H   0  0  0  0  0  0  0  0  0  0  0  0
    3.3411   -0.1032    0.0000 H   0  0  0  0  0  0  0  0  0  0  0  0
    3.9784    4.2738    0.0000 H   0  0  0  0  0  0  0  0  0  0  0  0
    1.6294    5.1681    0.0000 H   0  0  0  0  0  0  0  0  0  0  0  0
   -0.6364    3.2056    0.0000 H   0  0  0  0  0  0  0  0  0  0  0  0
   -0.9104    4.4146    0.0000 H   0  0  0  0  0  0  0  0  0  0  0  0
    1.9791    5.2006    0.0000 H   0  0  0  0  0  0  0  0  0  0  0  0
    0.2538    6.1880    0.0000 H   0  0  0  0  0  0  0  0  0  0  0  0
    3.0716    6.2724    0.0000 H   0  0  0  0  0  0  0  0  0  0  0  0
    4.9225    4.4696    0.0000 H   0  0  0  0  0  0  0  0  0  0  0  0
    7.0710    0.6589    0.0000 H   0  0  0  0  0  0  0  0  0  0  0  0
    5.4509    1.4069    0.0000 H   0  0  0  0  0  0  0  0  0  0  0  0
    9.7616    2.0605    0.0000 H   0  0  0  0  0  0  0  0  0  0  0  0
   10.2096    4.3477    0.0000 H   0  0  0  0  0  0  0  0  0  0  0  0
    7.8834    6.2382    0.0000 H   0  0  0  0  0  0  0  0  0  0  0  0
    9.0266    6.7180    0.0000 H   0  0  0  0  0  0  0  0  0  0  0  0
   10.3023    4.0089    0.0000 H   0  0  0  0  0  0  0  0  0  0  0  0
   10.9751    5.8794    0.0000 H   0  0  0  0  0  0  0  0  0  0  0  0
   11.1237    3.7085    0.0000 H   0  0  0  0  0  0  0  0  0  0  0  0
    8.1073   -1.2393    0.0000 H   0  0  0  0  0  0  0  0  0  0  0  0
   10.5067    2.4677    0.0000 H   0  0  0  0  0  0  0  0  0  0  0  0
    8.6698    1.8810    0.0000 H   0  0  0  0  0  0  0  0  0  0  0  0
   13.5076   -0.9303    0.0000 H   0  0  0  0  0  0  0  0  0  0  0  0
   11.2988   -2.9566    0.0000 H   0  0  0  0  0  0  0  0  0  0  0  0
   12.4686   -3.3671    0.0000 H   0  0  0  0  0  0  0  0  0  0  0  0
   13.7404   -0.6748    0.0000 H   0  0  0  0  0  0  0  0  0  0  0  0
   14.3634   -2.4135    0.0000 H   0  0  0  0  0  0  0  0  0  0  0  0
   14.7696    0.3762    0.0000 H   0  0  0  0  0  0  0  0  0  0  0  0
   13.8483    0.5776    0.0000 H   0  0  0  0  0  0  0  0  0  0  0  0
   12.6294    3.1661    0.0000 H   0  0  0  0  0  0  0  0  0  0  0  0
   14.2242    2.2346    0.0000 H   0  0  0  0  0  0  0  0  0  0  0  0
   12.2523    3.5915    0.0000 H   0  0  0  0  0  0  0  0  0  0  0  0
   -6.0589    1.4697    0.0000 H   0  0  0  0  0  0  0  0  0  0  0  0
   -7.7672   -0.9896    0.0000 H   0  0  0  0  0  0  0  0  0  0  0  0
   -8.1657    1.2217    0.0000 H   0  0  0  0  0  0  0  0  0  0  0  0
   -2.8076    1.9573    0.0000 H   0  0  0  0  0  0  0  0  0  0  0  0
   -0.4124    1.9036    0.0000 H   0  0  0  0  0  0  0  0  0  0  0  0
  -17.3958    0.4320    0.0000 H   0  0  0  0  0  0  0  0  0  0  0  0
  -17.3353    2.0128    0.0000 H   0  0  0  0  0  0  0  0  0  0  0  0
  1  2  1  0
  1 77  1  0
  1 78  1  0
  1 79  1  0
  2  3  1  0
  2  7  1  0
  2 80  1  6
  3  4  1  0
  3 81  1  1
  3 76  1  0
  4  5  1  0
  4 75  1  0
  4 82  1  6
  5  6  1  0
  5 83  1  0
  5 84  1  0
  6  7  1  0
  6  8  1  0
  6 85  1  6
  8  9  1  0
  9 10  1  0
  9 14  1  0
  9 86  1  1
 10 11  1  0
 10 87  1  0
 10 88  1  0
 11 12  1  0
 11 17  1  0
 11 89  1  1
 12 13  1  0
 13 14  1  0
 13 16  1  0
 13 90  1  1
 14 91  1  1
 14 15  1  0
 15 92  1  0
 16 93  1  0
 16 94  1  0
 16 95  1  0
 17 18  1  0
 18 19  2  0
 18 71  1  0
 19 20  1  0
 19 96  1  0
 20 21  2  0
 20 69  1  0
 21 22  1  0
 21 97  1  0
 22 23  2  0
 22 28  1  0
 23 24  1  0
 23 68  1  0
 24 25  2  0
 24 26  1  0
 26 27  1  0
 26 39  1  0
 26 98  1  6
 27 28  1  0
 27 29  1  0
 27 99  1  1
 28100  1  0
 28101  1  0
 29 30  1  0
 29 37  1  0
 29102  1  1
 30 31  2  0
 32 36  1  0
 32103  1  6
 32 33  1  0
 32 30  1  0
 33 34  1  0
 33 35  1  0
 33104  1  6
 34105  1  0
 34106  1  0
 34107  1  0
 35108  1  0
 36109  1  0
 37 38  1  0
 38110  1  0
 38111  1  0
 38112  1  0
 40 41  1  0
 40 45  1  0
 40113  1  1
 40 39  1  0
 41 42  1  0
 41114  1  0
 41115  1  0
 42 43  1  0
 42116  1  1
 42 48  1  0
 43 44  1  0
 43 47  1  0
 43117  1  6
 44 45  1  0
 44118  1  1
 44 46  1  0
 46119  1  0
 46120  1  0
 46121  1  0
 47122  1  0
 49 50  1  0
 49 54  1  0
 49123  1  1
 49 48  1  0
 50 51  1  0
 50124  1  0
 50125  1  0
 51 52  1  0
 51126  1  1
 51 57  1  0
 52 53  1  0
 52 56  1  0
 52127  1  6
 53 54  1  0
 53128  1  1
 53 55  1  0
 55129  1  0
 55130  1  0
 55131  1  0
 56132  1  0
 58 59  1  0
 58 63  1  0
 58133  1  6
 58 57  1  0
 59 60  1  0
 59134  1  0
 59135  1  0
 60 61  1  0
 60 67  1  6
 60 66  1  0
 61 62  1  0
 61 65  1  0
 61136  1  1
 62 63  1  0
 62137  1  6
 62 64  1  0
 64138  1  0
 64139  1  0
 64140  1  0
 65141  1  0
 66142  1  0
 66143  1  0
 66144  1  0
 67145  1  0
 68 69  2  0
 68 74  1  0
 69 70  1  0
 70 71  2  0
 70 73  1  0
 71 72  1  0
 72146  1  0
 72147  1  0
 72148  1  0
 73149  1  0
 74150  1  0
 75151  1  0
 76152  1  0
M  END
$$$$

     RDKit          2D

152159  0  0  1  0  0  0  0  0999 V2000
  -14.3645    5.1131    0.0000 C   0  0  0  0  0  0  0  0  0  0  0  0
  -13.5760    3.8371    0.0000 C   0  0  0  0  0  0  0  0  0  0  0  0
  -14.9695    3.2821    0.0000 C   0  0  0  0  0  0  0  0  0  0  0  0
  -15.1857    1.7978    0.0000 C   0  0  0  0  0  0  0  0  0  0  0  0
  -14.0082    0.8684    0.0000 C   0  0  0  0  0  0  0  0  0  0  0  0
  -12.6147    1.4234    0.0000 C   0  0  0  0  0  0  0  0  0  0  0  0
  -12.3986    2.9078    0.0000 O   0  0  0  0  0  0  0  0  0  0  0  0
  -12.3101   -0.0453    0.0000 O   0  0  0  0  0  0  0  0  0  0  0  0
  -10.8859   -0.5159    0.0000 C   0  0  0  0  0  0  0  0  0  0  0  0
   -9.3865   -0.4710    0.0000 C   0  0  0  0  0  0  0  0  0  0  0  0
   -8.5980   -1.7470    0.0000 C   0  0  0  0  0  0  0  0  0  0  0  0
   -9.3088   -3.0679    0.0000 O   0  0  0  0  0  0  0  0  0  0  0  0
  -10.8081   -3.1128    0.0000 C   0  0  0  0  0  0  0  0  0  0  0  0
  -11.5966   -1.8368    0.0000 C   0  0  0  0  0  0  0  0  0  0  0  0
  -12.7163   -2.8350    0.0000 O   0  0  0  0  0  0  0  0  0  0  0  0
  -10.5035   -4.5816    0.0000 C   0  0  0  0  0  0  0  0  0  0  0  0
   -7.4206   -2.6764    0.0000 O   0  0  0  0  0  0  0  0  0  0  0  0
   -6.0270   -2.1214    0.0000 C   0  0  0  0  0  0  0  0  0  0  0  0
   -4.8496   -3.0508    0.0000 C   0  0  0  0  0  0  0  0  0  0  0  0
   -3.4561   -2.4958    0.0000 C   0  0  0  0  0  0  0  0  0  0  0  0
   -2.2786   -3.4251    0.0000 C   0  0  0  0  0  0  0  0  0  0  0  0
   -0.8851   -2.8701    0.0000 C   0  0  0  0  0  0  0  0  0  0  0  0
   -0.6690   -1.3858    0.0000 C   0  0  0  0  0  0  0  0  0  0  0  0
    0.7246   -0.8308    0.0000 C   0  0  0  0  0  0  0  0  0  0  0  0
    0.7582    0.6688    0.0000 O   0  0  0  0  0  0  0  0  0  0  0  0
    1.9020   -1.7601    0.0000 C   0  0  0  0  0  0  0  0  0  0  0  0
    1.6859   -3.2445    0.0000 C   0  0  0  0  0  0  0  0  0  0  0  0
    0.2923   -3.7995    0.0000 C   0  0  0  0  0  0  0  0  0  0  0  0
    3.1852   -3.1996    0.0000 C   0  0  0  0  0  0  0  0  0  0  0  0
    3.2301   -4.6989    0.0000 C   0  0  0  0  0  0  0  0  0  0  0  0
    1.9541   -5.4875    0.0000 O   0  0  0  0  0  0  0  0  0  0  0  0
    4.5510   -5.4097    0.0000 C   0  0  0  0  0  0  0  0  0  0  0  0
    3.8402   -6.7306    0.0000 C   0  0  0  0  0  0  0  0  0  0  0  0
    5.1611   -7.4414    0.0000 C   0  0  0  0  0  0  0  0  0  0  0  0
    3.1294   -8.0515    0.0000 O   0  0  0  0  0  0  0  0  0  0  0  0
    5.8719   -6.1205    0.0000 O   0  0  0  0  0  0  0  0  0  0  0  0
    3.1403   -1.7003    0.0000 O   0  0  0  0  0  0  0  0  0  0  0  0
    4.4163   -0.9117    0.0000 C   0  0  0  0  0  0  0  0  0  0  0  0
    2.6128   -0.4392    0.0000 O   0  0  0  0  0  0  0  0  0  0  0  0
    1.8242    0.8368    0.0000 C   0  0  0  0  0  0  0  0  0  0  0  0
    3.2178    1.3918    0.0000 C   0  0  0  0  0  0  0  0  0  0  0  0
    3.4339    2.8761    0.0000 C   0  0  0  0  0  0  0  0  0  0  0  0
    2.2565    3.8055    0.0000 C   0  0  0  0  0  0  0  0  0  0  0  0
    0.8630    3.2505    0.0000 C   0  0  0  0  0  0  0  0  0  0  0  0
    0.6468    1.7661    0.0000 O   0  0  0  0  0  0  0  0  0  0  0  0
    0.5584    4.7192    0.0000 C   0  0  0  0  0  0  0  0  0  0  0  0
    3.3762    4.8036    0.0000 O   0  0  0  0  0  0  0  0  0  0  0  0
    4.8582    2.4055    0.0000 O   0  0  0  0  0  0  0  0  0  0  0  0
    5.9779    3.4036    0.0000 C   0  0  0  0  0  0  0  0  0  0  0  0
    6.7664    2.1276    0.0000 C   0  0  0  0  0  0  0  0  0  0  0  0
    8.2658    2.1725    0.0000 C   0  0  0  0  0  0  0  0  0  0  0  0
    8.9765    3.4934    0.0000 C   0  0  0  0  0  0  0  0  0  0  0  0
    8.1880    4.7694    0.0000 C   0  0  0  0  0  0  0  0  0  0  0  0
    6.6887    4.7245    0.0000 O   0  0  0  0  0  0  0  0  0  0  0  0
    9.5815    5.3244    0.0000 C   0  0  0  0  0  0  0  0  0  0  0  0
   10.1540    2.5641    0.0000 O   0  0  0  0  0  0  0  0  0  0  0  0
    8.0496    0.6882    0.0000 O   0  0  0  0  0  0  0  0  0  0  0  0
    9.2270   -0.2412    0.0000 C   0  0  0  0  0  0  0  0  0  0  0  0
    9.9378    1.0797    0.0000 C   0  0  0  0  0  0  0  0  0  0  0  0
   11.4371    1.1246    0.0000 C   0  0  0  0  0  0  0  0  0  0  0  0
   12.2257   -0.1514    0.0000 C   0  0  0  0  0  0  0  0  0  0  0  0
   11.5149   -1.4723    0.0000 C   0  0  0  0  0  0  0  0  0  0  0  0
   10.0156   -1.5172    0.0000 O   0  0  0  0  0  0  0  0  0  0  0  0
   12.9392   -1.9429    0.0000 C   0  0  0  0  0  0  0  0  0  0  0  0
   13.3454    0.8468    0.0000 O   0  0  0  0  0  0  0  0  0  0  0  0
   12.8307    1.6796    0.0000 C   0  0  0  0  0  0  0  0  0  0  0  0
   11.1326    2.5934    0.0000 O   0  0  0  0  0  0  0  0  0  0  0  0
   -1.8464   -0.4564    0.0000 C   0  0  0  0  0  0  0  0  0  0  0  0
   -3.2399   -1.0114    0.0000 C   0  0  0  0  0  0  0  0  0  0  0  0
   -4.4173   -0.0821    0.0000 C   0  0  0  0  0  0  0  0  0  0  0  0
   -5.8109   -0.6371    0.0000 C   0  0  0  0  0  0  0  0  0  0  0  0
   -6.9883    0.2923    0.0000 C   0  0  0  0  0  0  0  0  0  0  0  0
   -4.2012    1.4023    0.0000 O   0  0  0  0  0  0  0  0  0  0  0  0
   -1.6302    1.0279    0.0000 O   0  0  0  0  0  0  0  0  0  0  0  0
  -15.8964    0.4769    0.0000 O   0  0  0  0  0  0  0  0  0  0  0  0
  -16.4688    3.2372    0.0000 O   0  0  0  0  0  0  0  0  0  0  0  0
  -13.0885    5.9017    0.0000 H   0  0  0  0  0  0  0  0  0  0  0  0
  -15.0887    4.7799    0.0000 H   0  0  0  0  0  0  0  0  0  0  0  0
  -15.1531    6.3891    0.0000 H   0  0  0  0  0  0  0  0  0  0  0  0
  -12.4563    4.8353    0.0000 H   0  0  0  0  0  0  0  0  0  0  0  0
  -15.2253    4.0371    0.0000 H   0  0  0  0  0  0  0  0  0  0  0  0
  -16.6567    2.0913    0.0000 H   0  0  0  0  0  0  0  0  0  0  0  0
  -15.1279   -0.1297    0.0000 H   0  0  0  0  0  0  0  0  0  0  0  0
  -13.3811   -0.4942    0.0000 H   0  0  0  0  0  0  0  0  0  0  0  0
  -11.1320    1.6508    0.0000 H   0  0  0  0  0  0  0  0  0  0  0  0
  -10.4904    0.9310    0.0000 H   0  0  0  0  0  0  0  0  0  0  0  0
   -7.9930    0.0840    0.0000 H   0  0  0  0  0  0  0  0  0  0  0  0
   -9.6911    0.9977    0.0000 H   0  0  0  0  0  0  0  0  0  0  0  0
   -7.3650   -0.8928    0.0000 H   0  0  0  0  0  0  0  0  0  0  0  0
  -12.2016   -3.6678    0.0000 H   0  0  0  0  0  0  0  0  0  0  0  0
  -12.8786   -1.0579    0.0000 H   0  0  0  0  0  0  0  0  0  0  0  0
  -14.1406   -2.3644    0.0000 H   0  0  0  0  0  0  0  0  0  0  0  0
  -11.9723   -4.8862    0.0000 H   0  0  0  0  0  0  0  0  0  0  0  0
   -9.0348   -4.2770    0.0000 H   0  0  0  0  0  0  0  0  0  0  0  0
  -10.1989   -6.0504    0.0000 H   0  0  0  0  0  0  0  0  0  0  0  0
   -5.0657   -4.5351    0.0000 H   0  0  0  0  0  0  0  0  0  0  0  0
   -2.4948   -4.9095    0.0000 H   0  0  0  0  0  0  0  0  0  0  0  0
    3.3978   -1.8721    0.0000 H   0  0  0  0  0  0  0  0  0  0  0  0
    1.8091   -4.7394    0.0000 H   0  0  0  0  0  0  0  0  0  0  0  0
   -0.8274   -4.7976    0.0000 H   0  0  0  0  0  0  0  0  0  0  0  0
    1.0809   -5.0755    0.0000 H   0  0  0  0  0  0  0  0  0  0  0  0
    4.6845   -3.1547    0.0000 H   0  0  0  0  0  0  0  0  0  0  0  0
    5.2618   -4.0888    0.0000 H   0  0  0  0  0  0  0  0  0  0  0  0
    2.4425   -6.1861    0.0000 H   0  0  0  0  0  0  0  0  0  0  0  0
    4.6167   -8.8391    0.0000 H   0  0  0  0  0  0  0  0  0  0  0  0
    6.1704   -6.3317    0.0000 H   0  0  0  0  0  0  0  0  0  0  0  0
    6.4820   -8.1522    0.0000 H   0  0  0  0  0  0  0  0  0  0  0  0
    3.7566   -9.4141    0.0000 H   0  0  0  0  0  0  0  0  0  0  0  0
    7.1479   -5.3319    0.0000 H   0  0  0  0  0  0  0  0  0  0  0  0
    3.4781    0.2587    0.0000 H   0  0  0  0  0  0  0  0  0  0  0  0
    5.2049   -2.1877    0.0000 H   0  0  0  0  0  0  0  0  0  0  0  0
    5.6923   -0.1232    0.0000 H   0  0  0  0  0  0  0  0  0  0  0  0
    0.4212    0.3063    0.0000 H   0  0  0  0  0  0  0  0  0  0  0  0
    4.7114    1.2536    0.0000 H   0  0  0  0  0  0  0  0  0  0  0  0
    3.3411   -0.1032    0.0000 H   0  0  0  0  0  0  0  0  0  0  0  0
    3.9784    4.2738    0.0000 H   0  0  0  0  0  0  0  0  0  0  0  0
    1.6294    5.1681    0.0000 H   0  0  0  0  0  0  0  0  0  0  0  0
   -0.6364    3.2056    0.0000 H   0  0  0  0  0  0  0  0  0  0  0  0
   -0.9104    4.4146    0.0000 H   0  0  0  0  0  0  0  0  0  0  0  0
    1.9791    5.2006    0.0000 H   0  0  0  0  0  0  0  0  0  0  0  0
    0.2538    6.1880    0.0000 H   0  0  0  0  0  0  0  0  0  0  0  0
    3.0716    6.2724    0.0000 H   0  0  0  0  0  0  0  0  0  0  0  0
    4.9225    4.4696    0.0000 H   0  0  0  0  0  0  0  0  0  0  0  0
    7.0710    0.6589    0.0000 H   0  0  0  0  0  0  0  0  0  0  0  0
    5.4509    1.4069    0.0000 H   0  0  0  0  0  0  0  0  0  0  0  0
    9.7616    2.0605    0.0000 H   0  0  0  0  0  0  0  0  0  0  0  0
   10.2096    4.3477    0.0000 H   0  0  0  0  0  0  0  0  0  0  0  0
    7.8834    6.2382    0.0000 H   0  0  0  0  0  0  0  0  0  0  0  0
    9.0266    6.7180    0.0000 H   0  0  0  0  0  0  0  0  0  0  0  0
   10.3023    4.0089    0.0000 H   0  0  0  0  0  0  0  0  0  0  0  0
   10.9751    5.8794    0.0000 H   0  0  0  0  0  0  0  0  0  0  0  0
   11.1237    3.7085    0.0000 H   0  0  0  0  0  0  0  0  0  0  0  0
    8.1073   -1.2393    0.0000 H   0  0  0  0  0  0  0  0  0  0  0  0
   10.5067    2.4677    0.0000 H   0  0  0  0  0  0  0  0  0  0  0  0
    8.6698    1.8810    0.0000 H   0  0  0  0  0  0  0  0  0  0  0  0
   13.5076   -0.9303    0.0000 H   0  0  0  0  0  0  0  0  0  0  0  0
   11.2988   -2.9566    0.0000 H   0  0  0  0  0  0  0  0  0  0  0  0
   12.4686   -3.3671    0.0000 H   0  0  0  0  0  0  0  0  0  0  0  0
   13.7404   -0.6748    0.0000 H   0  0  0  0  0  0  0  0  0  0  0  0
   14.3634   -2.4135    0.0000 H   0  0  0  0  0  0  0  0  0  0  0  0
   14.7696    0.3762    0.0000 H   0  0  0  0  0  0  0  0  0  0  0  0
   13.8483    0.5776    0.0000 H   0  0  0  0  0  0  0  0  0  0  0  0
   12.6294    3.1661    0.0000 H   0  0  0  0  0  0  0  0  0  0  0  0
   14.2242    2.2346    0.0000 H   0  0  0  0  0  0  0  0  0  0  0  0
   12.2523    3.5915    0.0000 H   0  0  0  0  0  0  0  0  0  0  0  0
   -6.0589    1.4697    0.0000 H   0  0  0  0  0  0  0  0  0  0  0  0
   -7.7672   -0.9896    0.0000 H   0  0  0  0  0  0  0  0  0  0  0  0
   -8.1657    1.2217    0.0000 H   0  0  0  0  0  0  0  0  0  0  0  0
   -2.8076    1.9573    0.0000 H   0  0  0  0  0  0  0  0  0  0  0  0
   -0.4124    1.9036    0.0000 H   0  0  0  0  0  0  0  0  0  0  0  0
  -17.3958    0.4320    0.0000 H   0  0  0  0  0  0  0  0  0  0  0  0
  -17.3353    2.0128    0.0000 H   0  0  0  0  0  0  0  0  0  0  0  0
  1  2  1  0
  1 77  1  0
  1 78  1  0
  1 79  1  0
  2  3  1  0
  2  7  1  0
  2 80  1  6
  3  4  1  0
  3 81  1  1
  3 76  1  0
  4  5  1  0
  4 75  1  0
  4 82  1  6
  5  6  1  0
  5 83  1  0
  5 84  1  0
  6  7  1  0
  6  8  1  0
  6 85  1  6
  8  9  1  0
  9 10  1  0
  9 14  1  0
  9 86  1  1
 10 11  1  0
 10 87  1  0
 10 88  1  0
 11 12  1  0
 11 17  1  0
 11 89  1  1
 12 13  1  0
 13 14  1  0
 13 16  1  0
 13 90  1  1
 14 91  1  1
 14 15  1  0
 15 92  1  0
 16 93  1  0
 16 94  1  0
 16 95  1  0
 17 18  1  0
 18 19  2  0
 18 71  1  0
 19 20  1  0
 19 96  1  0
 20 21  2  0
 20 69  1  0
 21 22  1  0
 21 97  1  0
 22 23  2  0
 22 28  1  0
 23 24  1  0
 23 68  1  0
 24 25  2  0
 24 26  1  0
 26 27  1  0
 26 39  1  0
 26 98  1  6
 27 28  1  0
 27 29  1  0
 27 99  1  1
 28100  1  0
 28101  1  0
 29 30  1  0
 29 37  1  0
 29102  1  1
 30 31  2  0
 32 36  1  0
 32103  1  6
 32 33  1  0
 32 30  1  0
 33 34  1  0
 33 35  1  0
 33104  1  6
 34105  1  0
 34106  1  0
 34107  1  0
 35108  1  0
 36109  1  0
 37 38  1  0
 38110  1  0
 38111  1  0
 38112  1  0
 40 41  1  0
 40 45  1  0
 40113  1  1
 40 39  1  0
 41 42  1  0
 41114  1  0
 41115  1  0
 42 43  1  0
 42116  1  1
 42 48  1  0
 43 44  1  0
 43 47  1  0
 43117  1  6
 44 45  1  0
 44118  1  1
 44 46  1  0
 46119  1  0
 46120  1  0
 46121  1  0
 47122  1  0
 49 50  1  0
 49 54  1  0
 49123  1  1
 49 48  1  0
 50 51  1  0
 50124  1  0
 50125  1  0
 51 52  1  0
 51126  1  1
 51 57  1  0
 52 53  1  0
 52 56  1  0
 52127  1  6
 53 54  1  0
 53128  1  1
 53 55  1  0
 55129  1  0
 55130  1  0
 55131  1  0
 56132  1  0
 58 59  1  0
 58 63  1  0
 58133  1  6
 58 57  1  0
 59 60  1  0
 59134  1  0
 59135  1  0
 60 61  1  0
 60 67  1  6
 60 66  1  0
 61 62  1  0
 61 65  1  0
 61136  1  1
 62 63  1  0
 62137  1  6
 62 64  1  0
 64138  1  0
 64139  1  0
 64140  1  0
 65141  1  0
 66142  1  0
 66143  1  0
 66144  1  0
 67145  1  0
 68 69  2  0
 68 74  1  0
 69 70  1  0
 70 71  2  0
 70 73  1  0
 71 72  1  0
 72146  1  0
 72147  1  0
 72148  1  0
 73149  1  0
 74150  1  0
 75151  1  0
 76152  1  0
M  END
$$$$

     RDKit          2D

 34 35  0  0  0  0  0  0  0  0999 V2000
   -0.0717   -3.4747    0.0000 C   0  0  0  0  0  0  0  0  0  0  0  0
    0.4964   -2.0865    0.0000 C   0  0  0  0  0  0  0  0  0  0  0  0
   -0.4218   -0.9004    0.0000 C   0  0  0  0  0  0  0  0  0  0  0  0
   -1.9081   -1.1025    0.0000 C   0  0  0  0  0  0  0  0  0  0  0  0
   -2.4762   -2.4908    0.0000 C   0  0  0  0  0  0  0  0  0  0  0  0
   -1.5580   -3.6769    0.0000 C   0  0  0  0  0  0  0  0  0  0  0  0
   -2.1261   -5.0652    0.0000 Cl  0  0  0  0  0  0  0  0  0  0  0  0
   -2.4503   -0.4021    0.0000 Cl  0  0  0  0  0  0  0  0  0  0  0  0
    0.1463    0.4879    0.0000 C   0  0  0  0  0  0  0  0  0  0  0  0
   -1.2420    1.0560    0.0000 C   0  0  0  0  0  0  0  0  0  0  0  0
   -2.6303    1.6241    0.0000 N   0  0  0  0  0  0  0  0  0  0  0  0
   -2.9867    3.0811    0.0000 C   0  0  0  0  0  0  0  0  0  0  0  0
   -4.4826    3.1924    0.0000 N   0  0  0  0  0  0  0  0  0  0  0  0
   -5.0506    1.8041    0.0000 C   0  0  0  0  0  0  0  0  0  0  0  0
   -3.9059    0.8348    0.0000 N   0  0  0  0  0  0  0  0  0  0  0  0
    1.5345   -0.0802    0.0000 C   0  0  0  0  0  0  0  0  0  0  0  0
    2.9228   -0.6483    0.0000 O   0  0  0  0  0  0  0  0  0  0  0  0
    4.1089    0.2700    0.0000 C   0  0  0  0  0  0  0  0  0  0  0  0
    5.2950    1.1882    0.0000 C   0  0  0  0  0  0  0  0  0  0  0  0
    6.2132    0.0021    0.0000 F   0  0  0  0  0  0  0  0  0  0  0  0
    4.3768    2.3743    0.0000 F   0  0  0  0  0  0  0  0  0  0  0  0
    3.1907    1.4561    0.0000 F   0  0  0  0  0  0  0  0  0  0  0  0
    5.0271   -0.9161    0.0000 F   0  0  0  0  0  0  0  0  0  0  0  0
    0.8466   -4.6608    0.0000 H   0  0  0  0  0  0  0  0  0  0  0  0
    1.3741   -1.9671    0.0000 H   0  0  0  0  0  0  0  0  0  0  0  0
   -3.9625   -2.6930    0.0000 H   0  0  0  0  0  0  0  0  0  0  0  0
    0.7143    1.8762    0.0000 H   0  0  0  0  0  0  0  0  0  0  0  0
   -0.6739    2.4442    0.0000 H   0  0  0  0  0  0  0  0  0  0  0  0
   -1.7658    0.3418    0.0000 H   0  0  0  0  0  0  0  0  0  0  0  0
   -2.0174    4.2259    0.0000 H   0  0  0  0  0  0  0  0  0  0  0  0
   -6.5077    1.4477    0.0000 H   0  0  0  0  0  0  0  0  0  0  0  0
    1.4074   -0.9567    0.0000 H   0  0  0  0  0  0  0  0  0  0  0  0
    2.1026    1.3081    0.0000 H   0  0  0  0  0  0  0  0  0  0  0  0
    6.4811    2.1064    0.0000 H   0  0  0  0  0  0  0  0  0  0  0  0
  1  2  2  0
  1  6  1  0
  1 24  1  0
  2  3  1  0
  2 25  1  0
  3  4  2  0
  3  9  1  0
  4  5  1  0
  4  8  1  0
  5  6  2  0
  5 26  1  0
  6  7  1  0
  9 10  1  0
  9 16  1  0
  9 27  1  6
 10 11  1  0
 10 28  1  0
 10 29  1  0
 11 12  1  0
 11 15  1  0
 12 13  2  0
 12 30  1  0
 13 14  1  0
 14 15  2  0
 14 31  1  0
 16 17  1  0
 16 32  1  0
 16 33  1  0
 17 18  1  0
 18 19  1  0
 18 22  1  0
 18 23  1  0
 19 20  1  0
 19 21  1  0
 19 34  1  0
M  END
$$$$

     RDKit          2D

 69 70  0  0  0  0  0  0  0  0999 V2000
   -2.7198   -4.6573    0.0000 C   0  0  0  0  0  0  0  0  0  0  0  0
   -2.1551   -3.2677    0.0000 C   0  0  0  0  0  0  0  0  0  0  0  0
   -1.5903   -1.8781    0.0000 O   0  0  0  0  0  0  0  0  0  0  0  0
   -0.1045   -1.6723    0.0000 C   0  0  0  0  0  0  0  0  0  0  0  0
    0.2182   -2.4013    0.0000 O   0  0  0  0  0  0  0  0  0  0  0  0
    0.4602   -0.2827    0.0000 C   0  0  0  0  0  0  0  0  0  0  0  0
   -0.4608    0.9012    0.0000 C   0  0  0  0  0  0  0  0  0  0  0  0
    0.1039    2.2908    0.0000 N   0  0  0  0  0  0  0  0  0  0  0  0
    1.5897    2.4965    0.0000 C   0  0  0  0  0  0  0  0  0  0  0  0
    2.5108    1.3126    0.0000 C   0  0  0  0  0  0  0  0  0  0  0  0
    1.9461   -0.0770    0.0000 C   0  0  0  0  0  0  0  0  0  0  0  0
    1.8907   -1.5760    0.0000 C   0  0  0  0  0  0  0  0  0  0  0  0
    0.5648   -2.2775    0.0000 C   0  0  0  0  0  0  0  0  0  0  0  0
    0.5094   -3.7764    0.0000 C   0  0  0  0  0  0  0  0  0  0  0  0
    1.7799   -4.5739    0.0000 C   0  0  0  0  0  0  0  0  0  0  0  0
    3.1057   -3.8724    0.0000 C   0  0  0  0  0  0  0  0  0  0  0  0
    3.1611   -2.3734    0.0000 C   0  0  0  0  0  0  0  0  0  0  0  0
    4.4870   -1.6719    0.0000 Cl  0  0  0  0  0  0  0  0  0  0  0  0
    3.9966    1.5184    0.0000 C   0  0  0  0  0  0  0  0  0  0  0  0
    4.9177    0.3345    0.0000 O   0  0  0  0  0  0  0  0  0  0  0  0
    4.5614    2.9080    0.0000 O   0  0  0  0  0  0  0  0  0  0  0  0
    6.0472    3.1137    0.0000 C   0  0  0  0  0  0  0  0  0  0  0  0
    2.1545    3.8862    0.0000 C   0  0  0  0  0  0  0  0  0  0  0  0
   -1.9467    0.6954    0.0000 C   0  0  0  0  0  0  0  0  0  0  0  0
   -3.4325    0.4897    0.0000 O   0  0  0  0  0  0  0  0  0  0  0  0
   -4.3536    1.6736    0.0000 C   0  0  0  0  0  0  0  0  0  0  0  0
   -5.2746    2.8575    0.0000 C   0  0  0  0  0  0  0  0  0  0  0  0
   -6.1957    4.0414    0.0000 N   0  0  0  0  0  0  0  0  0  0  0  0
    2.4756    9.0095    0.0000 C   0  0  0  0  0  0  0  0  0  0  0  0
    1.5722    7.8121    0.0000 C   0  0  0  0  0  0  0  0  0  0  0  0
    0.0835    7.9958    0.0000 C   0  0  0  0  0  0  0  0  0  0  0  0
   -0.5018    9.3769    0.0000 C   0  0  0  0  0  0  0  0  0  0  0  0
    0.4016   10.5743    0.0000 C   0  0  0  0  0  0  0  0  0  0  0  0
    1.8903   10.3907    0.0000 C   0  0  0  0  0  0  0  0  0  0  0  0
   -1.9905    9.5606    0.0000 S   0  0  0  0  0  0  0  0  0  0  0  0
   -1.8068   11.0493    0.0000 O   0  0  0  0  0  0  0  0  0  0  0  0
   -2.1742    8.0719    0.0000 O   0  0  0  0  0  0  0  0  0  0  0  0
   -3.4792    9.7443    0.0000 O   0  0  0  0  0  0  0  0  0  0  0  0
   -4.1094   -4.0926    0.0000 H   0  0  0  0  0  0  0  0  0  0  0  0
   -1.4094   -5.3873    0.0000 H   0  0  0  0  0  0  0  0  0  0  0  0
   -3.2845   -6.0470    0.0000 H   0  0  0  0  0  0  0  0  0  0  0  0
   -3.5447   -2.7030    0.0000 H   0  0  0  0  0  0  0  0  0  0  0  0
   -0.8446   -3.9976    0.0000 H   0  0  0  0  0  0  0  0  0  0  0  0
   -0.8172    3.4747    0.0000 H   0  0  0  0  0  0  0  0  0  0  0  0
    3.4127   -0.3918    0.0000 H   0  0  0  0  0  0  0  0  0  0  0  0
   -0.8608   -1.8111    0.0000 H   0  0  0  0  0  0  0  0  0  0  0  0
   -0.6073   -4.7779    0.0000 H   0  0  0  0  0  0  0  0  0  0  0  0
    1.7245   -6.0729    0.0000 H   0  0  0  0  0  0  0  0  0  0  0  0
    4.3762   -4.6699    0.0000 H   0  0  0  0  0  0  0  0  0  0  0  0
    5.8415    4.5996    0.0000 H   0  0  0  0  0  0  0  0  0  0  0  0
    6.2529    1.6279    0.0000 H   0  0  0  0  0  0  0  0  0  0  0  0
    7.5330    3.3195    0.0000 H   0  0  0  0  0  0  0  0  0  0  0  0
    0.7648    4.4509    0.0000 H   0  0  0  0  0  0  0  0  0  0  0  0
    3.5441    3.3214    0.0000 H   0  0  0  0  0  0  0  0  0  0  0  0
    2.7192    5.2758    0.0000 H   0  0  0  0  0  0  0  0  0  0  0  0
   -1.7409   -0.7904    0.0000 H   0  0  0  0  0  0  0  0  0  0  0  0
   -2.1524    2.1813    0.0000 H   0  0  0  0  0  0  0  0  0  0  0  0
   -5.5375    0.7525    0.0000 H   0  0  0  0  0  0  0  0  0  0  0  0
   -3.1697    2.5947    0.0000 H   0  0  0  0  0  0  0  0  0  0  0  0
   -6.4585    1.9364    0.0000 H   0  0  0  0  0  0  0  0  0  0  0  0
   -4.0908    3.7786    0.0000 H   0  0  0  0  0  0  0  0  0  0  0  0
   -7.6816    3.8357    0.0000 H   0  0  0  0  0  0  0  0  0  0  0  0
   -5.6310    5.4310    0.0000 H   0  0  0  0  0  0  0  0  0  0  0  0
    3.9643    8.8259    0.0000 H   0  0  0  0  0  0  0  0  0  0  0  0
    2.1575    6.4310    0.0000 H   0  0  0  0  0  0  0  0  0  0  0  0
   -0.8200    6.7984    0.0000 H   0  0  0  0  0  0  0  0  0  0  0  0
   -0.1837   11.9554    0.0000 H   0  0  0  0  0  0  0  0  0  0  0  0
    2.7938   11.5881    0.0000 H   0  0  0  0  0  0  0  0  0  0  0  0
   -4.3827    8.5469    0.0000 H   0  0  0  0  0  0  0  0  0  0  0  0
  1  2  1  0
  1 39  1  0
  1 40  1  0
  1 41  1  0
  2  3  1  0
  2 42  1  0
  2 43  1  0
  3  4  1  0
  4  5  2  0
  4  6  1  0
  6  7  2  0
  6 11  1  0
  7  8  1  0
  7 24  1  0
  8  9  1  0
  8 44  1  0
  9 10  2  0
  9 23  1  0
 10 11  1  0
 10 19  1  0
 11 12  1  0
 11 45  1  1
 12 13  2  0
 12 17  1  0
 13 14  1  0
 13 46  1  0
 14 15  2  0
 14 47  1  0
 15 16  1  0
 15 48  1  0
 16 17  2  0
 16 49  1  0
 17 18  1  0
 19 20  2  0
 19 21  1  0
 21 22  1  0
 22 50  1  0
 22 51  1  0
 22 52  1  0
 23 53  1  0
 23 54  1  0
 23 55  1  0
 24 25  1  0
 24 56  1  0
 24 57  1  0
 25 26  1  0
 26 27  1  0
 26 58  1  0
 26 59  1  0
 27 28  1  0
 27 60  1  0
 27 61  1  0
 28 62  1  0
 28 63  1  0
 29 30  2  0
 29 34  1  0
 29 64  1  0
 30 31  1  0
 30 65  1  0
 31 32  2  0
 31 66  1  0
 32 33  1  0
 32 35  1  0
 33 34  2  0
 33 67  1  0
 34 68  1  0
 35 36  2  0
 35 37  2  0
 35 38  1  0
 38 69  1  0
M  END
$$$$

     RDKit          2D

 47 48  0  0  0  0  0  0  0  0999 V2000
   -5.9400   -2.1433    0.0000 C   0  0  0  0  0  0  0  0  0  0  0  0
   -4.9232   -3.2461    0.0000 C   0  0  0  0  0  0  0  0  0  0  0  0
   -3.4598   -2.9170    0.0000 C   0  0  0  0  0  0  0  0  0  0  0  0
   -3.0131   -1.4850    0.0000 C   0  0  0  0  0  0  0  0  0  0  0  0
   -4.0299   -0.3822    0.0000 C   0  0  0  0  0  0  0  0  0  0  0  0
   -5.4933   -0.7114    0.0000 C   0  0  0  0  0  0  0  0  0  0  0  0
   -3.5832    1.0497    0.0000 Cl  0  0  0  0  0  0  0  0  0  0  0  0
   -1.5497   -1.1559    0.0000 S   0  0  0  0  0  0  0  0  0  0  0  0
   -1.1030    0.2761    0.0000 C   0  0  0  0  0  0  0  0  0  0  0  0
    0.3289   -0.1706    0.0000 C   0  0  0  0  0  0  0  0  0  0  0  0
    1.7609   -0.6172    0.0000 C   0  0  0  0  0  0  0  0  0  0  0  0
    3.1928   -1.0639    0.0000 C   0  0  0  0  0  0  0  0  0  0  0  0
    3.5220   -2.5273    0.0000 C   0  0  0  0  0  0  0  0  0  0  0  0
    4.9539   -2.9740    0.0000 C   0  0  0  0  0  0  0  0  0  0  0  0
    6.0567   -1.9572    0.0000 C   0  0  0  0  0  0  0  0  0  0  0  0
    5.7276   -0.4938    0.0000 C   0  0  0  0  0  0  0  0  0  0  0  0
    4.2956   -0.0471    0.0000 C   0  0  0  0  0  0  0  0  0  0  0  0
    7.4887   -2.4039    0.0000 Cl  0  0  0  0  0  0  0  0  0  0  0  0
   -0.6564    1.7081    0.0000 C   0  0  0  0  0  0  0  0  0  0  0  0
   -0.2097    3.1400    0.0000 N   0  0  0  0  0  0  0  0  0  0  0  0
   -1.1056    4.3430    0.0000 C   0  0  0  0  0  0  0  0  0  0  0  0
   -0.2383    5.5669    0.0000 C   0  0  0  0  0  0  0  0  0  0  0  0
    1.1936    5.1202    0.0000 N   0  0  0  0  0  0  0  0  0  0  0  0
    1.2113    3.6203    0.0000 C   0  0  0  0  0  0  0  0  0  0  0  0
   -2.4430   -4.0198    0.0000 Cl  0  0  0  0  0  0  0  0  0  0  0  0
    0.5196    9.4879    0.0000 N   0  0  0  0  0  0  0  0  0  0  0  0
    0.5196    7.9879    0.0000 O   0  0  0  0  0  0  0  0  0  0  0  0
   -0.7794   10.2379    0.0000 O   0  0  0  0  0  0  0  0  0  0  0  0
    1.8187   10.2379    0.0000 O   0  0  0  0  0  0  0  0  0  0  0  0
   -7.4035   -2.4725    0.0000 H   0  0  0  0  0  0  0  0  0  0  0  0
   -5.3699   -4.6781    0.0000 H   0  0  0  0  0  0  0  0  0  0  0  0
   -6.5101    0.3914    0.0000 H   0  0  0  0  0  0  0  0  0  0  0  0
   -2.5350    0.7228    0.0000 H   0  0  0  0  0  0  0  0  0  0  0  0
    0.6938    0.6365    0.0000 H   0  0  0  0  0  0  0  0  0  0  0  0
   -0.1177   -1.6025    0.0000 H   0  0  0  0  0  0  0  0  0  0  0  0
    1.3142   -2.0492    0.0000 H   0  0  0  0  0  0  0  0  0  0  0  0
    2.2075    0.8147    0.0000 H   0  0  0  0  0  0  0  0  0  0  0  0
    2.4192   -3.5441    0.0000 H   0  0  0  0  0  0  0  0  0  0  0  0
    5.2831   -4.4374    0.0000 H   0  0  0  0  0  0  0  0  0  0  0  0
    6.8304    0.5230    0.0000 H   0  0  0  0  0  0  0  0  0  0  0  0
    3.9665    1.4163    0.0000 H   0  0  0  0  0  0  0  0  0  0  0  0
   -2.0883    2.1547    0.0000 H   0  0  0  0  0  0  0  0  0  0  0  0
    0.2150    1.5493    0.0000 H   0  0  0  0  0  0  0  0  0  0  0  0
   -2.6055    4.3254    0.0000 H   0  0  0  0  0  0  0  0  0  0  0  0
   -0.7186    6.9879    0.0000 H   0  0  0  0  0  0  0  0  0  0  0  0
    2.4352    2.7530    0.0000 H   0  0  0  0  0  0  0  0  0  0  0  0
   -2.0785    9.4879    0.0000 H   0  0  0  0  0  0  0  0  0  0  0  0
  1  2  2  0
  1  6  1  0
  1 30  1  0
  2  3  1  0
  2 31  1  0
  3  4  2  0
  3 25  1  0
  4  5  1  0
  4  8  1  0
  5  6  2  0
  5  7  1  0
  6 32  1  0
  8  9  1  0
  9 10  1  0
  9 19  1  0
  9 33  1  1
 10 11  1  0
 10 34  1  0
 10 35  1  0
 11 12  1  0
 11 36  1  0
 11 37  1  0
 12 13  2  0
 12 17  1  0
 13 14  1  0
 13 38  1  0
 14 15  2  0
 14 39  1  0
 15 16  1  0
 15 18  1  0
 16 17  2  0
 16 40  1  0
 17 41  1  0
 19 20  1  0
 19 42  1  0
 19 43  1  0
 20 21  1  0
 20 24  1  0
 21 22  2  0
 21 44  1  0
 22 23  1  0
 22 45  1  0
 23 24  2  0
 24 46  1  0
 26 27  2  0
 26 28  1  0
 26 29  1  0
 28 47  1  0
M  CHG  2  26   1  29  -1
M  END
$$$$

     RDKit          2D

 50 49  0  0  0  0  0  0  0  0999 V2000
    9.4651   -0.1885    0.0000 C   0  0  0  0  0  0  0  0  0  0  0  0
    7.9660   -0.1374    0.0000 C   0  0  0  0  0  0  0  0  0  0  0  0
    6.4668   -0.0862    0.0000 C   0  0  0  0  0  0  0  0  0  0  0  0
    4.9677   -0.0351    0.0000 C   0  0  0  0  0  0  0  0  0  0  0  0
    3.4686    0.0161    0.0000 C   0  0  0  0  0  0  0  0  0  0  0  0
    1.9695    0.0672    0.0000 C   0  0  0  0  0  0  0  0  0  0  0  0
    0.4703    0.1184    0.0000 C   0  0  0  0  0  0  0  0  0  0  0  0
   -1.0288    0.1695    0.0000 C   0  0  0  0  0  0  0  0  0  0  0  0
   -2.5279    0.2207    0.0000 C   0  0  0  0  0  0  0  0  0  0  0  0
   -4.0271    0.2718    0.0000 C   0  0  0  0  0  0  0  0  0  0  0  0
   -5.5262    0.3230    0.0000 N   0  0  0  0  0  0  0  0  0  0  0  0
   -6.3660    1.5658    0.0000 C   0  0  0  0  0  0  0  0  0  0  0  0
   -7.8075    1.1512    0.0000 C   0  0  0  0  0  0  0  0  0  0  0  0
   -7.8587   -0.3479    0.0000 N   0  0  0  0  0  0  0  0  0  0  0  0
   -6.4487   -0.8598    0.0000 C   0  0  0  0  0  0  0  0  0  0  0  0
   -9.1016   -1.1877    0.0000 C   0  0  0  0  0  0  0  0  0  0  0  0
    0.0000    6.9758    0.0000 F   0  0  0  0  0  0  0  0  0  0  0  0
    0.0000    5.4758    0.0000 P   0  0  0  0  0  0  0  0  0  0  0  0
    1.2990    6.2258    0.0000 F   0  0  0  0  0  0  0  0  0  0  0  0
    1.2990    4.7258    0.0000 F   0  0  0  0  0  0  0  0  0  0  0  0
    0.0000    3.9758    0.0000 F   0  0  0  0  0  0  0  0  0  0  0  0
   -1.2990    6.2258    0.0000 F   0  0  0  0  0  0  0  0  0  0  0  0
   -1.2990    4.7258    0.0000 F   0  0  0  0  0  0  0  0  0  0  0  0
    9.5162    1.3106    0.0000 H   0  0  0  0  0  0  0  0  0  0  0  0
    9.4139   -1.6876    0.0000 H   0  0  0  0  0  0  0  0  0  0  0  0
   10.9642   -0.2397    0.0000 H   0  0  0  0  0  0  0  0  0  0  0  0
    7.9148   -1.6365    0.0000 H   0  0  0  0  0  0  0  0  0  0  0  0
    8.0171    1.3618    0.0000 H   0  0  0  0  0  0  0  0  0  0  0  0
    6.5180    1.4129    0.0000 H   0  0  0  0  0  0  0  0  0  0  0  0
    6.4157   -1.5853    0.0000 H   0  0  0  0  0  0  0  0  0  0  0  0
    4.9166   -1.5342    0.0000 H   0  0  0  0  0  0  0  0  0  0  0  0
    5.0189    1.4641    0.0000 H   0  0  0  0  0  0  0  0  0  0  0  0
    3.5197    1.5152    0.0000 H   0  0  0  0  0  0  0  0  0  0  0  0
    3.4174   -1.4830    0.0000 H   0  0  0  0  0  0  0  0  0  0  0  0
    1.9183   -1.4319    0.0000 H   0  0  0  0  0  0  0  0  0  0  0  0
    2.0206    1.5664    0.0000 H   0  0  0  0  0  0  0  0  0  0  0  0
    0.5215    1.6175    0.0000 H   0  0  0  0  0  0  0  0  0  0  0  0
    0.4192   -1.3808    0.0000 H   0  0  0  0  0  0  0  0  0  0  0  0
   -1.0800   -1.3296    0.0000 H   0  0  0  0  0  0  0  0  0  0  0  0
   -0.9777    1.6686    0.0000 H   0  0  0  0  0  0  0  0  0  0  0  0
   -2.4768    1.7198    0.0000 H   0  0  0  0  0  0  0  0  0  0  0  0
   -2.5791   -1.2785    0.0000 H   0  0  0  0  0  0  0  0  0  0  0  0
   -4.0782   -1.2273    0.0000 H   0  0  0  0  0  0  0  0  0  0  0  0
   -3.9759    1.7709    0.0000 H   0  0  0  0  0  0  0  0  0  0  0  0
   -5.8541    2.9758    0.0000 H   0  0  0  0  0  0  0  0  0  0  0  0
   -8.9903    2.0738    0.0000 H   0  0  0  0  0  0  0  0  0  0  0  0
   -6.0341   -2.3014    0.0000 H   0  0  0  0  0  0  0  0  0  0  0  0
   -9.9413    0.0552    0.0000 H   0  0  0  0  0  0  0  0  0  0  0  0
   -8.2618   -2.4306    0.0000 H   0  0  0  0  0  0  0  0  0  0  0  0
  -10.3444   -2.0275    0.0000 H   0  0  0  0  0  0  0  0  0  0  0  0
  1  2  1  0
  1 24  1  0
  1 25  1  0
  1 26  1  0
  2  3  1  0
  2 27  1  0
  2 28  1  0
  3  4  1  0
  3 29  1  0
  3 30  1  0
  4  5  1  0
  4 31  1  0
  4 32  1  0
  5  6  1  0
  5 33  1  0
  5 34  1  0
  6  7  1  0
  6 35  1  0
  6 36  1  0
  7  8  1  0
  7 37  1  0
  7 38  1  0
  8  9  1  0
  8 39  1  0
  8 40  1  0
  9 10  1  0
  9 41  1  0
  9 42  1  0
 10 11  1  0
 10 43  1  0
 10 44  1  0
 11 12  1  0
 11 15  1  0
 12 13  2  0
 12 45  1  0
 13 14  1  0
 13 46  1  0
 14 15  2  0
 14 16  1  0
 15 47  1  0
 16 48  1  0
 16 49  1  0
 16 50  1  0
 17 18  1  0
 18 19  1  0
 18 20  1  0
 18 21  1  0
 18 22  1  0
 18 23  1  0
M  CHG  2  14   1  18  -1
M  END
$$$$

     RDKit          2D

 14 14  0  0  0  0  0  0  0  0999 V2000
   -0.5126   -1.2951    0.0000 C   0  0  0  0  0  0  0  0  0  0  0  0
   -1.4445   -0.1197    0.0000 C   0  0  0  0  0  0  0  0  0  0  0  0
   -0.8924    1.2751    0.0000 C   0  0  0  0  0  0  0  0  0  0  0  0
    0.5915    1.4943    0.0000 C   0  0  0  0  0  0  0  0  0  0  0  0
    1.5233    0.3189    0.0000 C   0  0  0  0  0  0  0  0  0  0  0  0
    0.9713   -1.0758    0.0000 C   0  0  0  0  0  0  0  0  0  0  0  0
    1.9031   -2.2513    0.0000 I   0  0  0  0  0  0  0  0  0  0  0  0
    3.0072    0.5382    0.0000 O   0  0  0  0  0  0  0  0  0  0  0  0
    1.1435    2.8891    0.0000 I   0  0  0  0  0  0  0  0  0  0  0  0
   -2.9283   -0.3389    0.0000 C   0  0  0  0  0  0  0  0  0  0  0  0
   -4.4122   -0.5582    0.0000 N   0  0  0  0  0  0  0  0  0  0  0  0
   -1.0646   -2.6898    0.0000 H   0  0  0  0  0  0  0  0  0  0  0  0
   -1.8243    2.4505    0.0000 H   0  0  0  0  0  0  0  0  0  0  0  0
    3.9390   -0.6373    0.0000 H   0  0  0  0  0  0  0  0  0  0  0  0
  1  2  2  0
  1  6  1  0
  1 12  1  0
  2  3  1  0
  2 10  1  0
  3  4  2  0
  3 13  1  0
  4  5  1  0
  4  9  1  0
  5  6  2  0
  5  8  1  0
  6  7  1  0
  8 14  1  0
 10 11  3  0
M  END
$$$$

     RDKit          2D

 29 28  0  0  0  0  0  0  0  0999 V2000
    6.0000   -0.0000    0.0000 C   0  0  0  0  0  0  0  0  0  0  0  0
    4.5000    0.0000    0.0000 C   0  0  0  0  0  0  0  0  0  0  0  0
    3.0000    0.0000    0.0000 C   0  0  0  0  0  0  0  0  0  0  0  0
    1.5000    0.0000    0.0000 C   0  0  0  0  0  0  0  0  0  0  0  0
   -0.0000   -0.0000    0.0000 Sn  0  0  0  0  0  4  0  0  0  0  0  0
   -1.5000   -0.0000    0.0000 C   0  0  0  0  0  0  0  0  0  0  0  0
   -3.0000   -0.0000    0.0000 C   0  0  0  0  0  0  0  0  0  0  0  0
   -4.5000   -0.0000    0.0000 C   0  0  0  0  0  0  0  0  0  0  0  0
   -6.0000   -0.0000    0.0000 C   0  0  0  0  0  0  0  0  0  0  0  0
   -0.0000   -1.5000    0.0000 Cl  0  0  0  0  0  0  0  0  0  0  0  0
   -0.0000    1.5000    0.0000 Cl  0  0  0  0  0  0  0  0  0  0  0  0
    6.0000   -1.5000    0.0000 H   0  0  0  0  0  0  0  0  0  0  0  0
    6.0000    1.5000    0.0000 H   0  0  0  0  0  0  0  0  0  0  0  0
    7.5000   -0.0000    0.0000 H   0  0  0  0  0  0  0  0  0  0  0  0
    4.5000   -1.5000    0.0000 H   0  0  0  0  0  0  0  0  0  0  0  0
    4.5000    1.5000    0.0000 H   0  0  0  0  0  0  0  0  0  0  0  0
    3.0000    1.5000    0.0000 H   0  0  0  0  0  0  0  0  0  0  0  0
    3.0000   -1.5000    0.0000 H   0  0  0  0  0  0  0  0  0  0  0  0
    1.5000   -1.5000    0.0000 H   0  0  0  0  0  0  0  0  0  0  0  0
    1.5000    1.5000    0.0000 H   0  0  0  0  0  0  0  0  0  0  0  0
   -1.5000    1.5000    0.0000 H   0  0  0  0  0  0  0  0  0  0  0  0
   -1.5000   -1.5000    0.0000 H   0  0  0  0  0  0  0  0  0  0  0  0
   -3.0000   -1.5000    0.0000 H   0  0  0  0  0  0  0  0  0  0  0  0
   -3.0000    1.5000    0.0000 H   0  0  0  0  0  0  0  0  0  0  0  0
   -4.5000    1.5000    0.0000 H   0  0  0  0  0  0  0  0  0  0  0  0
   -4.5000   -1.5000    0.0000 H   0  0  0  0  0  0  0  0  0  0  0  0
   -6.0000   -1.5000    0.0000 H   0  0  0  0  0  0  0  0  0  0  0  0
   -6.0000    1.5000    0.0000 H   0  0  0  0  0  0  0  0  0  0  0  0
   -7.5000   -0.0000    0.0000 H   0  0  0  0  0  0  0  0  0  0  0  0
  1  2  1  0
  1 12  1  0
  1 13  1  0
  1 14  1  0
  2  3  1  0
  2 15  1  0
  2 16  1  0
  3  4  1  0
  3 17  1  0
  3 18  1  0
  4  5  1  0
  4 19  1  0
  4 20  1  0
  5  6  1  0
  5 10  1  0
  5 11  1  0
  6  7  1  0
  6 21  1  0
  6 22  1  0
  7  8  1  0
  7 23  1  0
  7 24  1  0
  8  9  1  0
  8 25  1  0
  8 26  1  0
  9 27  1  0
  9 28  1  0
  9 29  1  0
M  END
$$$$

     RDKit          2D

 33 34  0  0  0  0  0  0  0  0999 V2000
    5.6088   -0.9649    0.0000 C   0  0  0  0  0  0  0  0  0  0  0  0
    4.2224   -1.5375    0.0000 C   0  0  0  0  0  0  0  0  0  0  0  0
    3.0333   -0.6231    0.0000 C   0  0  0  0  0  0  0  0  0  0  0  0
    1.8442    0.2912    0.0000 O   0  0  0  0  0  0  0  0  0  0  0  0
    0.4578   -0.2813    0.0000 C   0  0  0  0  0  0  0  0  0  0  0  0
   -0.9286   -0.8539    0.0000 C   0  0  0  0  0  0  0  0  0  0  0  0
   -2.3150   -1.4265    0.0000 N   0  0  0  0  0  0  0  0  0  0  0  0
   -2.6667   -2.8847    0.0000 C   0  0  0  0  0  0  0  0  0  0  0  0
   -4.1622   -3.0008    0.0000 C   0  0  0  0  0  0  0  0  0  0  0  0
   -4.7348   -1.6144    0.0000 N   0  0  0  0  0  0  0  0  0  0  0  0
   -3.5931   -0.6414    0.0000 C   0  0  0  0  0  0  0  0  0  0  0  0
   -0.1148    1.1051    0.0000 C   0  0  0  0  0  0  0  0  0  0  0  0
   -1.6017    1.3024    0.0000 C   0  0  0  0  0  0  0  0  0  0  0  0
   -2.1743    2.6888    0.0000 C   0  0  0  0  0  0  0  0  0  0  0  0
   -1.2599    3.8779    0.0000 C   0  0  0  0  0  0  0  0  0  0  0  0
    0.2271    3.6806    0.0000 C   0  0  0  0  0  0  0  0  0  0  0  0
    0.7996    2.2942    0.0000 C   0  0  0  0  0  0  0  0  0  0  0  0
   -1.8325    5.2643    0.0000 Cl  0  0  0  0  0  0  0  0  0  0  0  0
   -2.1416    0.6003    0.0000 Cl  0  0  0  0  0  0  0  0  0  0  0  0
    6.7979   -1.8793    0.0000 H   0  0  0  0  0  0  0  0  0  0  0  0
    5.8062    0.5220    0.0000 H   0  0  0  0  0  0  0  0  0  0  0  0
    4.0251   -3.0245    0.0000 H   0  0  0  0  0  0  0  0  0  0  0  0
    3.9477    0.5659    0.0000 H   0  0  0  0  0  0  0  0  0  0  0  0
    2.1189   -1.8122    0.0000 H   0  0  0  0  0  0  0  0  0  0  0  0
    1.0304   -1.6678    0.0000 H   0  0  0  0  0  0  0  0  0  0  0  0
   -1.4547   -0.1414    0.0000 H   0  0  0  0  0  0  0  0  0  0  0  0
   -0.3560   -2.2403    0.0000 H   0  0  0  0  0  0  0  0  0  0  0  0
   -1.6937   -4.0263    0.0000 H   0  0  0  0  0  0  0  0  0  0  0  0
   -4.9473   -4.2790    0.0000 H   0  0  0  0  0  0  0  0  0  0  0  0
   -3.7093    0.8541    0.0000 H   0  0  0  0  0  0  0  0  0  0  0  0
   -3.6613    2.8862    0.0000 H   0  0  0  0  0  0  0  0  0  0  0  0
    1.1414    4.8696    0.0000 H   0  0  0  0  0  0  0  0  0  0  0  0
    2.2866    2.0968    0.0000 H   0  0  0  0  0  0  0  0  0  0  0  0
  1  2  2  0
  1 20  1  0
  1 21  1  0
  2  3  1  0
  2 22  1  0
  3  4  1  0
  3 23  1  0
  3 24  1  0
  4  5  1  0
  5  6  1  0
  5 12  1  0
  5 25  1  6
  6  7  1  0
  6 26  1  0
  6 27  1  0
  7  8  1  0
  7 11  1  0
  8  9  2  0
  8 28  1  0
  9 10  1  0
  9 29  1  0
 10 11  2  0
 11 30  1  0
 12 13  2  0
 12 17  1  0
 13 14  1  0
 13 19  1  0
 14 15  2  0
 14 31  1  0
 15 16  1  0
 15 18  1  0
 16 17  2  0
 16 32  1  0
 17 33  1  0
M  END
$$$$

     RDKit          2D

 13 13  0  0  0  0  0  0  0  0999 V2000
   -1.7226   -0.4910    0.0000 C   0  0  0  0  0  0  0  0  0  0  0  0
   -1.4392    0.9820    0.0000 C   0  0  0  0  0  0  0  0  0  0  0  0
   -0.0218    1.4730    0.0000 C   0  0  0  0  0  0  0  0  0  0  0  0
    1.1121    0.4910    0.0000 C   0  0  0  0  0  0  0  0  0  0  0  0
    0.8286   -0.9820    0.0000 C   0  0  0  0  0  0  0  0  0  0  0  0
   -0.5888   -1.4730    0.0000 C   0  0  0  0  0  0  0  0  0  0  0  0
   -0.8722   -2.9459    0.0000 Cl  0  0  0  0  0  0  0  0  0  0  0  0
    1.9625   -1.9640    0.0000 Cl  0  0  0  0  0  0  0  0  0  0  0  0
    2.5295    0.9820    0.0000 O   0  0  0  0  0  0  0  0  0  0  0  0
    0.2617    2.9459    0.0000 Cl  0  0  0  0  0  0  0  0  0  0  0  0
   -2.5731    1.9640    0.0000 Cl  0  0  0  0  0  0  0  0  0  0  0  0
   -3.1400   -0.9820    0.0000 H   0  0  0  0  0  0  0  0  0  0  0  0
    3.6633    0.0000    0.0000 H   0  0  0  0  0  0  0  0  0  0  0  0
  1  2  2  0
  1  6  1  0
  1 12  1  0
  2  3  1  0
  2 11  1  0
  3  4  2  0
  3 10  1  0
  4  5  1  0
  4  9  1  0
  5  6  2  0
  5  8  1  0
  6  7  1  0
  9 13  1  0
M  END
$$$$

     RDKit          2D

176182  0  0  1  0  0  0  0  0999 V2000
   -1.9090   -0.4997    0.0000 C   0  0  0  0  0  0  0  0  0  0  0  0
   -2.9721    0.5585    0.0000 C   0  0  0  0  0  0  0  0  0  0  0  0
   -3.5429   -0.8286    0.0000 C   0  0  0  0  0  0  0  0  0  0  0  0
   -4.6012   -1.8917    0.0000 C   0  0  0  0  0  0  0  0  0  0  0  0
   -4.0912   -3.3023    0.0000 O   0  0  0  0  0  0  0  0  0  0  0  0
   -5.9857   -2.4689    0.0000 N   0  0  0  0  0  0  0  0  0  0  0  0
   -7.4857   -2.4723    0.0000 C   0  0  0  0  0  0  0  0  0  0  0  0
   -8.8728   -1.9014    0.0000 C   0  0  0  0  0  0  0  0  0  0  0  0
   -9.3918   -2.5065    0.0000 O   0  0  0  0  0  0  0  0  0  0  0  0
   -9.9359   -0.8432    0.0000 N   0  0  0  0  0  0  0  0  0  0  0  0
  -11.0743   -1.8200    0.0000 C   0  0  0  0  0  0  0  0  0  0  0  0
  -12.3550   -1.0391    0.0000 C   0  0  0  0  0  0  0  0  0  0  0  0
  -12.0082    0.4202    0.0000 C   0  0  0  0  0  0  0  0  0  0  0  0
  -10.5131    0.5413    0.0000 C   0  0  0  0  0  0  0  0  0  0  0  0
  -10.5165    2.0413    0.0000 C   0  0  0  0  0  0  0  0  0  0  0  0
  -11.9421    2.5078    0.0000 O   0  0  0  0  0  0  0  0  0  0  0  0
   -9.9456    3.4284    0.0000 N   0  0  0  0  0  0  0  0  0  0  0  0
   -8.8874    4.4915    0.0000 C   0  0  0  0  0  0  0  0  0  0  0  0
   -7.5029    5.0687    0.0000 C   0  0  0  0  0  0  0  0  0  0  0  0
   -7.9759    6.4921    0.0000 O   0  0  0  0  0  0  0  0  0  0  0  0
   -6.0029    5.0721    0.0000 N   0  0  0  0  0  0  0  0  0  0  0  0
   -4.6158    4.5012    0.0000 C   0  0  0  0  0  0  0  0  0  0  0  0
   -3.5527    3.4430    0.0000 C   0  0  0  0  0  0  0  0  0  0  0  0
   -2.2147    4.1212    0.0000 O   0  0  0  0  0  0  0  0  0  0  0  0
   -2.9755    2.0585    0.0000 O   0  0  0  0  0  0  0  0  0  0  0  0
   -3.2312    5.0784    0.0000 C   0  0  0  0  0  0  0  0  0  0  0  0
   -3.8084    6.4629    0.0000 C   0  0  0  0  0  0  0  0  0  0  0  0
   -1.8467    5.6556    0.0000 C   0  0  0  0  0  0  0  0  0  0  0  0
   -5.7136    6.5439    0.0000 C   0  0  0  0  0  0  0  0  0  0  0  0
  -11.1947    4.2589    0.0000 C   0  0  0  0  0  0  0  0  0  0  0  0
   -8.5439   -3.5354    0.0000 C   0  0  0  0  0  0  0  0  0  0  0  0
   -9.6070   -2.4771    0.0000 C   0  0  0  0  0  0  0  0  0  0  0  0
   -9.6022   -4.5985    0.0000 C   0  0  0  0  0  0  0  0  0  0  0  0
   -2.9658   -2.2131    0.0000 N   0  0  0  0  0  0  0  0  0  0  0  0
   -3.8762   -3.4052    0.0000 C   0  0  0  0  0  0  0  0  0  0  0  0
   -5.3762   -3.3956    0.0000 O   0  0  0  0  0  0  0  0  0  0  0  0
   -3.2990   -4.7898    0.0000 C   0  0  0  0  0  0  0  0  0  0  0  0
   -1.8114   -4.9822    0.0000 C   0  0  0  0  0  0  0  0  0  0  0  0
   -1.2342   -6.3667    0.0000 C   0  0  0  0  0  0  0  0  0  0  0  0
   -2.1446   -7.5588    0.0000 C   0  0  0  0  0  0  0  0  0  0  0  0
   -3.6322   -7.3664    0.0000 C   0  0  0  0  0  0  0  0  0  0  0  0
   -4.2094   -5.9819    0.0000 C   0  0  0  0  0  0  0  0  0  0  0  0
   -1.5675   -8.9433    0.0000 C   0  0  0  0  0  0  0  0  0  0  0  0
    0.2534   -6.5591    0.0000 O   0  0  0  0  0  0  0  0  0  0  0  0
    1.1638   -5.3670    0.0000 C   0  0  0  0  0  0  0  0  0  0  0  0
    2.6514   -5.5594    0.0000 C   0  0  0  0  0  0  0  0  0  0  0  0
    3.5619   -4.3672    0.0000 C   0  0  0  0  0  0  0  0  0  0  0  0
    5.0149   -4.7395    0.0000 O   0  0  0  0  0  0  0  0  0  0  0  0
    2.9847   -2.9827    0.0000 C   0  0  0  0  0  0  0  0  0  0  0  0
    1.4971   -2.7903    0.0000 C   0  0  0  0  0  0  0  0  0  0  0  0
    0.5866   -3.9824    0.0000 C   0  0  0  0  0  0  0  0  0  0  0  0
   -0.9010   -3.7900    0.0000 N   0  0  0  0  0  0  0  0  0  0  0  0
    0.9199   -1.4058    0.0000 C   0  0  0  0  0  0  0  0  0  0  0  0
   -0.5801   -1.3962    0.0000 O   0  0  0  0  0  0  0  0  0  0  0  0
    1.8303   -0.2137    0.0000 N   0  0  0  0  0  0  0  0  0  0  0  0
    3.3179   -0.4061    0.0000 C   0  0  0  0  0  0  0  0  0  0  0  0
    2.9264    1.0419    0.0000 C   0  0  0  0  0  0  0  0  0  0  0  0
    3.1188    2.5295    0.0000 O   0  0  0  0  0  0  0  0  0  0  0  0
    3.8658    3.8302    0.0000 C   0  0  0  0  0  0  0  0  0  0  0  0
    2.5307    4.5139    0.0000 O   0  0  0  0  0  0  0  0  0  0  0  0
    5.0538    4.7461    0.0000 C   0  0  0  0  0  0  0  0  0  0  0  0
    6.5018    5.1376    0.0000 N   0  0  0  0  0  0  0  0  0  0  0  0
    7.9894    4.9452    0.0000 C   0  0  0  0  0  0  0  0  0  0  0  0
    8.7980    6.2086    0.0000 O   0  0  0  0  0  0  0  0  0  0  0  0
    9.2901    4.1982    0.0000 C   0  0  0  0  0  0  0  0  0  0  0  0
   10.2060    3.0102    0.0000 N   0  0  0  0  0  0  0  0  0  0  0  0
   10.5975    1.5622    0.0000 C   0  0  0  0  0  0  0  0  0  0  0  0
   12.0705    1.8454    0.0000 O   0  0  0  0  0  0  0  0  0  0  0  0
   10.4051    0.0746    0.0000 C   0  0  0  0  0  0  0  0  0  0  0  0
   11.8730   -0.2339    0.0000 C   0  0  0  0  0  0  0  0  0  0  0  0
   12.0332   -1.7253    0.0000 C   0  0  0  0  0  0  0  0  0  0  0  0
   10.6643   -2.3385    0.0000 C   0  0  0  0  0  0  0  0  0  0  0  0
    9.6581   -1.2261    0.0000 N   0  0  0  0  0  0  0  0  0  0  0  0
    8.4701   -2.1420    0.0000 C   0  0  0  0  0  0  0  0  0  0  0  0
    9.2955   -3.3945    0.0000 O   0  0  0  0  0  0  0  0  0  0  0  0
    7.0221   -2.5335    0.0000 C   0  0  0  0  0  0  0  0  0  0  0  0
    5.5345   -2.3411    0.0000 N   0  0  0  0  0  0  0  0  0  0  0  0
    4.2338   -1.5941    0.0000 C   0  0  0  0  0  0  0  0  0  0  0  0
    3.5501   -2.9292    0.0000 O   0  0  0  0  0  0  0  0  0  0  0  0
    7.9380   -3.7214    0.0000 C   0  0  0  0  0  0  0  0  0  0  0  0
    9.1259   -2.8056    0.0000 C   0  0  0  0  0  0  0  0  0  0  0  0
    8.8538   -4.9094    0.0000 C   0  0  0  0  0  0  0  0  0  0  0  0
   11.5498    3.6767    0.0000 C   0  0  0  0  0  0  0  0  0  0  0  0
    6.4003    6.6342    0.0000 C   0  0  0  0  0  0  0  0  0  0  0  0
    3.7530    5.4931    0.0000 C   0  0  0  0  0  0  0  0  0  0  0  0
    3.0060    4.1924    0.0000 C   0  0  0  0  0  0  0  0  0  0  0  0
    2.4523    6.2402    0.0000 C   0  0  0  0  0  0  0  0  0  0  0  0
    1.7385    0.1260    0.0000 C   0  0  0  0  0  0  0  0  0  0  0  0
    3.8951   -1.7906    0.0000 N   0  0  0  0  0  0  0  0  0  0  0  0
    3.2286   -6.9439    0.0000 C   0  0  0  0  0  0  0  0  0  0  0  0
   -0.8508    0.5633    0.0000 H   0  0  0  0  0  0  0  0  0  0  0  0
   -2.6786   -1.7873    0.0000 H   0  0  0  0  0  0  0  0  0  0  0  0
   -0.9828   -1.6797    0.0000 H   0  0  0  0  0  0  0  0  0  0  0  0
   -1.5876    1.1357    0.0000 H   0  0  0  0  0  0  0  0  0  0  0  0
   -2.0867   -1.1883    0.0000 H   0  0  0  0  0  0  0  0  0  0  0  0
   -5.8712   -3.9645    0.0000 H   0  0  0  0  0  0  0  0  0  0  0  0
   -6.9085   -3.8568    0.0000 H   0  0  0  0  0  0  0  0  0  0  0  0
  -10.4255   -3.1724    0.0000 H   0  0  0  0  0  0  0  0  0  0  0  0
  -11.9847   -3.0121    0.0000 H   0  0  0  0  0  0  0  0  0  0  0  0
  -12.9977   -2.3945    0.0000 H   0  0  0  0  0  0  0  0  0  0  0  0
  -13.7701   -0.5417    0.0000 H   0  0  0  0  0  0  0  0  0  0  0  0
  -13.4958    0.6126    0.0000 H   0  0  0  0  0  0  0  0  0  0  0  0
  -12.3362    1.8839    0.0000 H   0  0  0  0  0  0  0  0  0  0  0  0
  -11.6169    1.5570    0.0000 H   0  0  0  0  0  0  0  0  0  0  0  0
  -10.1946    5.2272    0.0000 H   0  0  0  0  0  0  0  0  0  0  0  0
   -8.8908    5.9915    0.0000 H   0  0  0  0  0  0  0  0  0  0  0  0
   -4.6192    6.0012    0.0000 H   0  0  0  0  0  0  0  0  0  0  0  0
   -2.4896    3.7746    0.0000 H   0  0  0  0  0  0  0  0  0  0  0  0
   -2.5046    7.2046    0.0000 H   0  0  0  0  0  0  0  0  0  0  0  0
   -5.2530    6.0588    0.0000 H   0  0  0  0  0  0  0  0  0  0  0  0
   -4.3856    7.8474    0.0000 H   0  0  0  0  0  0  0  0  0  0  0  0
   -2.2508    7.1001    0.0000 H   0  0  0  0  0  0  0  0  0  0  0  0
   -1.2696    4.2711    0.0000 H   0  0  0  0  0  0  0  0  0  0  0  0
   -0.4622    6.2328    0.0000 H   0  0  0  0  0  0  0  0  0  0  0  0
   -4.2359    6.8015    0.0000 H   0  0  0  0  0  0  0  0  0  0  0  0
   -7.1392    7.0105    0.0000 H   0  0  0  0  0  0  0  0  0  0  0  0
   -5.4243    8.0158    0.0000 H   0  0  0  0  0  0  0  0  0  0  0  0
  -10.5227    5.6000    0.0000 H   0  0  0  0  0  0  0  0  0  0  0  0
  -12.1713    3.1204    0.0000 H   0  0  0  0  0  0  0  0  0  0  0  0
  -12.4438    5.0894    0.0000 H   0  0  0  0  0  0  0  0  0  0  0  0
   -7.4808   -4.5936    0.0000 H   0  0  0  0  0  0  0  0  0  0  0  0
   -8.8374   -1.1896    0.0000 H   0  0  0  0  0  0  0  0  0  0  0  0
  -10.7869   -3.4033    0.0000 H   0  0  0  0  0  0  0  0  0  0  0  0
  -10.8945   -1.7076    0.0000 H   0  0  0  0  0  0  0  0  0  0  0  0
   -8.5391   -5.6567    0.0000 H   0  0  0  0  0  0  0  0  0  0  0  0
  -10.7863   -3.6777    0.0000 H   0  0  0  0  0  0  0  0  0  0  0  0
  -10.6604   -5.6615    0.0000 H   0  0  0  0  0  0  0  0  0  0  0  0
   -1.4781   -2.4055    0.0000 H   0  0  0  0  0  0  0  0  0  0  0  0
   -4.5427   -8.5585    0.0000 H   0  0  0  0  0  0  0  0  0  0  0  0
   -5.6970   -5.7895    0.0000 H   0  0  0  0  0  0  0  0  0  0  0  0
   -2.9520   -9.5205    0.0000 H   0  0  0  0  0  0  0  0  0  0  0  0
   -0.1829   -8.3661    0.0000 H   0  0  0  0  0  0  0  0  0  0  0  0
   -0.9903  -10.3278    0.0000 H   0  0  0  0  0  0  0  0  0  0  0  0
    0.9353    0.9900    0.0000 H   0  0  0  0  0  0  0  0  0  0  0  0
    2.7350   -1.7882    0.0000 H   0  0  0  0  0  0  0  0  0  0  0  0
    1.7264    1.9419    0.0000 H   0  0  0  0  0  0  0  0  0  0  0  0
    5.2462    6.2337    0.0000 H   0  0  0  0  0  0  0  0  0  0  0  0
   10.6796    4.7633    0.0000 H   0  0  0  0  0  0  0  0  0  0  0  0
    9.4825    5.6858    0.0000 H   0  0  0  0  0  0  0  0  0  0  0  0
   11.6281    0.9431    0.0000 H   0  0  0  0  0  0  0  0  0  0  0  0
   12.3829    1.1768    0.0000 H   0  0  0  0  0  0  0  0  0  0  0  0
   13.3730   -0.2305    0.0000 H   0  0  0  0  0  0  0  0  0  0  0  0
   13.4997   -1.4101    0.0000 H   0  0  0  0  0  0  0  0  0  0  0  0
   12.5000   -3.1508    0.0000 H   0  0  0  0  0  0  0  0  0  0  0  0
   11.4173   -3.6359    0.0000 H   0  0  0  0  0  0  0  0  0  0  0  0
    9.8503   -3.5985    0.0000 H   0  0  0  0  0  0  0  0  0  0  0  0
    6.2751   -3.8342    0.0000 H   0  0  0  0  0  0  0  0  0  0  0  0
    5.2324   -3.8104    0.0000 H   0  0  0  0  0  0  0  0  0  0  0  0
    6.7500   -4.6373    0.0000 H   0  0  0  0  0  0  0  0  0  0  0  0
    8.5247   -1.4313    0.0000 H   0  0  0  0  0  0  0  0  0  0  0  0
   10.1798   -3.8730    0.0000 H   0  0  0  0  0  0  0  0  0  0  0  0
   10.5002   -2.2044    0.0000 H   0  0  0  0  0  0  0  0  0  0  0  0
    7.6659   -5.8252    0.0000 H   0  0  0  0  0  0  0  0  0  0  0  0
   10.1446   -4.1452    0.0000 H   0  0  0  0  0  0  0  0  0  0  0  0
    9.7697   -6.0973    0.0000 H   0  0  0  0  0  0  0  0  0  0  0  0
   12.3751    2.4242    0.0000 H   0  0  0  0  0  0  0  0  0  0  0  0
   11.0521    5.0917    0.0000 H   0  0  0  0  0  0  0  0  0  0  0  0
   12.8936    4.3432    0.0000 H   0  0  0  0  0  0  0  0  0  0  0  0
    7.8968    6.7357    0.0000 H   0  0  0  0  0  0  0  0  0  0  0  0
    7.8278    7.0948    0.0000 H   0  0  0  0  0  0  0  0  0  0  0  0
    6.2987    8.1307    0.0000 H   0  0  0  0  0  0  0  0  0  0  0  0
    4.5001    6.7939    0.0000 H   0  0  0  0  0  0  0  0  0  0  0  0
    1.6239    4.7753    0.0000 H   0  0  0  0  0  0  0  0  0  0  0  0
    4.0873    3.1528    0.0000 H   0  0  0  0  0  0  0  0  0  0  0  0
    2.2590    2.8916    0.0000 H   0  0  0  0  0  0  0  0  0  0  0  0
    3.1993    7.5409    0.0000 H   0  0  0  0  0  0  0  0  0  0  0  0
    1.5523    5.0402    0.0000 H   0  0  0  0  0  0  0  0  0  0  0  0
    1.1515    6.9872    0.0000 H   0  0  0  0  0  0  0  0  0  0  0  0
    0.9742    1.4168    0.0000 H   0  0  0  0  0  0  0  0  0  0  0  0
    2.5027   -1.1647    0.0000 H   0  0  0  0  0  0  0  0  0  0  0  0
    0.3642   -0.4752    0.0000 H   0  0  0  0  0  0  0  0  0  0  0  0
    3.6701   -0.3076    0.0000 H   0  0  0  0  0  0  0  0  0  0  0  0
    5.2920   -2.3373    0.0000 H   0  0  0  0  0  0  0  0  0  0  0  0
    4.6131   -6.3667    0.0000 H   0  0  0  0  0  0  0  0  0  0  0  0
    1.8441   -7.5210    0.0000 H   0  0  0  0  0  0  0  0  0  0  0  0
    3.8058   -8.3284    0.0000 H   0  0  0  0  0  0  0  0  0  0  0  0
  1 91  1  0
  1 92  1  0
  1 93  1  0
  1  2  1  0
  2  3  1  0
  2 25  1  0
  2 94  1  1
  3  4  1  0
  3 34  1  0
  3 95  1  6
  4  6  1  0
  4  5  2  0
  6  7  1  0
  6 96  1  0
  7  8  1  0
  7 97  1  1
  7 31  1  0
  8 10  1  0
  8  9  2  0
 10 11  1  0
 10 14  1  0
 11 12  1  0
 11 98  1  0
 11 99  1  0
 12 13  1  0
 12100  1  0
 12101  1  0
 13 14  1  0
 13102  1  0
 13103  1  0
 14 15  1  0
 14104  1  6
 15 17  1  0
 15 16  2  0
 17 18  1  0
 17 30  1  0
 18 19  1  0
 18105  1  0
 18106  1  0
 19 21  1  0
 19 20  2  0
 21 22  1  0
 21 29  1  0
 22 23  1  0
 22107  1  6
 22 26  1  0
 23 25  1  0
 23 24  2  0
 26 27  1  0
 26 28  1  0
 26108  1  0
 27109  1  0
 27110  1  0
 27111  1  0
 28112  1  0
 28113  1  0
 28114  1  0
 29115  1  0
 29116  1  0
 29117  1  0
 30118  1  0
 30119  1  0
 30120  1  0
 31 32  1  0
 31 33  1  0
 31121  1  0
 32122  1  0
 32123  1  0
 32124  1  0
 33125  1  0
 33126  1  0
 33127  1  0
 34 35  1  0
 34128  1  0
 35 36  2  0
 35 37  1  0
 37 38  2  0
 37 42  1  0
 38 39  1  0
 38 52  1  0
 39 40  2  0
 39 44  1  0
 40 41  1  0
 40 43  1  0
 41 42  2  0
 41129  1  0
 42130  1  0
 43131  1  0
 43132  1  0
 43133  1  0
 44 45  1  0
 45 46  2  0
 45 51  1  0
 46 47  1  0
 46 90  1  0
 47 48  2  0
 47 49  1  0
 49 50  2  0
 49 89  1  0
 50 51  1  0
 50 53  1  0
 51 52  2  0
 53 54  2  0
 53 55  1  0
 55134  1  0
 56 57  1  0
 56 78  1  0
 56135  1  6
 56 55  1  0
 57 58  1  0
 57136  1  6
 57 88  1  0
 58 59  1  0
 59 60  2  0
 59 61  1  0
 61 62  1  0
 61 85  1  0
 61137  1  1
 62 63  1  0
 62 84  1  0
 63 64  2  0
 63 65  1  0
 65 66  1  0
 65138  1  0
 65139  1  0
 66 67  1  0
 66 83  1  0
 67 68  2  0
 67 69  1  0
 69 70  1  0
 69 73  1  0
 69140  1  1
 70 71  1  0
 70141  1  0
 70142  1  0
 71 72  1  0
 71143  1  0
 71144  1  0
 72 73  1  0
 72145  1  0
 72146  1  0
 73 74  1  0
 74 75  2  0
 74 76  1  0
 76 77  1  0
 76147  1  6
 76 80  1  0
 77 78  1  0
 77148  1  0
 78 79  2  0
 80 81  1  0
 80 82  1  0
 80149  1  0
 81150  1  0
 81151  1  0
 81152  1  0
 82153  1  0
 82154  1  0
 82155  1  0
 83156  1  0
 83157  1  0
 83158  1  0
 84159  1  0
 84160  1  0
 84161  1  0
 85 86  1  0
 85 87  1  0
 85162  1  0
 86163  1  0
 86164  1  0
 86165  1  0
 87166  1  0
 87167  1  0
 87168  1  0
 88169  1  0
 88170  1  0
 88171  1  0
 89172  1  0
 89173  1  0
 90174  1  0
 90175  1  0
 90176  1  0
M  END
$$$$

     RDKit          2D

 33 34  0  0  0  0  0  0  0  0999 V2000
    0.0334   -3.5324    0.0000 C   0  0  0  0  0  0  0  0  0  0  0  0
    0.0145   -2.0326    0.0000 C   0  0  0  0  0  0  0  0  0  0  0  0
   -0.0043   -0.5327    0.0000 C   0  0  0  0  0  0  0  0  0  0  0  0
   -0.0232    0.9672    0.0000 C   0  0  0  0  0  0  0  0  0  0  0  0
   -1.5231    0.9483    0.0000 C   0  0  0  0  0  0  0  0  0  0  0  0
   -3.0230    0.9295    0.0000 N   0  0  0  0  0  0  0  0  0  0  0  0
   -3.8893   -0.2950    0.0000 C   0  0  0  0  0  0  0  0  0  0  0  0
   -5.3216    0.1505    0.0000 N   0  0  0  0  0  0  0  0  0  0  0  0
   -5.3405    1.6504    0.0000 C   0  0  0  0  0  0  0  0  0  0  0  0
   -3.9198    2.1318    0.0000 N   0  0  0  0  0  0  0  0  0  0  0  0
    1.4767    0.9861    0.0000 C   0  0  0  0  0  0  0  0  0  0  0  0
    2.2103    2.2944    0.0000 C   0  0  0  0  0  0  0  0  0  0  0  0
    3.7102    2.3133    0.0000 C   0  0  0  0  0  0  0  0  0  0  0  0
    4.4765    1.0238    0.0000 C   0  0  0  0  0  0  0  0  0  0  0  0
    3.7428   -0.2846    0.0000 C   0  0  0  0  0  0  0  0  0  0  0  0
    2.2430   -0.3035    0.0000 C   0  0  0  0  0  0  0  0  0  0  0  0
    5.9763    1.0426    0.0000 Cl  0  0  0  0  0  0  0  0  0  0  0  0
    1.4440    3.5839    0.0000 Cl  0  0  0  0  0  0  0  0  0  0  0  0
   -1.4665   -3.5513    0.0000 H   0  0  0  0  0  0  0  0  0  0  0  0
    1.5333   -3.5136    0.0000 H   0  0  0  0  0  0  0  0  0  0  0  0
    0.0522   -5.0323    0.0000 H   0  0  0  0  0  0  0  0  0  0  0  0
   -1.4854   -2.0514    0.0000 H   0  0  0  0  0  0  0  0  0  0  0  0
    1.2222   -2.1655    0.0000 H   0  0  0  0  0  0  0  0  0  0  0  0
   -0.8820   -0.6517    0.0000 H   0  0  0  0  0  0  0  0  0  0  0  0
    1.0599   -0.7839    0.0000 H   0  0  0  0  0  0  0  0  0  0  0  0
   -0.0421    2.4671    0.0000 H   0  0  0  0  0  0  0  0  0  0  0  0
   -1.6200    0.0679    0.0000 H   0  0  0  0  0  0  0  0  0  0  0  0
   -1.5419    2.4482    0.0000 H   0  0  0  0  0  0  0  0  0  0  0  0
   -3.4079   -1.7157    0.0000 H   0  0  0  0  0  0  0  0  0  0  0  0
   -6.5650    2.5167    0.0000 H   0  0  0  0  0  0  0  0  0  0  0  0
    4.4438    3.6216    0.0000 H   0  0  0  0  0  0  0  0  0  0  0  0
    4.5091   -1.5741    0.0000 H   0  0  0  0  0  0  0  0  0  0  0  0
    1.9072   -1.1231    0.0000 H   0  0  0  0  0  0  0  0  0  0  0  0
  1  2  1  0
  1 19  1  0
  1 20  1  0
  1 21  1  0
  2  3  1  0
  2 22  1  0
  2 23  1  0
  3  4  1  0
  3 24  1  0
  3 25  1  0
  4  5  1  0
  4 11  1  0
  4 26  1  6
  5  6  1  0
  5 27  1  0
  5 28  1  0
  6  7  1  0
  6 10  1  0
  7  8  2  0
  7 29  1  0
  8  9  1  0
  9 10  2  0
  9 30  1  0
 11 12  2  0
 11 16  1  0
 12 13  1  0
 12 18  1  0
 13 14  2  0
 13 31  1  0
 14 15  1  0
 14 17  1  0
 15 16  2  0
 15 32  1  0
 16 33  1  0
M  END
$$$$

     RDKit          2D

 57 59  0  0  0  0  0  0  0  0999 V2000
   -6.1233    1.0804    0.0000 C   0  0  0  0  0  0  0  0  0  0  0  0
   -4.7860    0.4012    0.0000 C   0  0  0  0  0  0  0  0  0  0  0  0
   -3.4486   -0.2781    0.0000 C   0  0  0  0  0  0  0  0  0  0  0  0
   -2.1916    0.5404    0.0000 C   0  0  0  0  0  0  0  0  0  0  0  0
   -2.2720    2.0383    0.0000 C   0  0  0  0  0  0  0  0  0  0  0  0
   -1.0151    2.8568    0.0000 C   0  0  0  0  0  0  0  0  0  0  0  0
   -1.0955    4.3546    0.0000 C   0  0  0  0  0  0  0  0  0  0  0  0
   -2.4328    5.0339    0.0000 C   0  0  0  0  0  0  0  0  0  0  0  0
   -3.6898    4.2154    0.0000 C   0  0  0  0  0  0  0  0  0  0  0  0
   -3.6094    2.7175    0.0000 C   0  0  0  0  0  0  0  0  0  0  0  0
   -0.8543   -0.1389    0.0000 C   0  0  0  0  0  0  0  0  0  0  0  0
   -0.7739   -1.6367    0.0000 C   0  0  0  0  0  0  0  0  0  0  0  0
    0.5635   -2.3160    0.0000 C   0  0  0  0  0  0  0  0  0  0  0  0
    1.8205   -1.4975    0.0000 C   0  0  0  0  0  0  0  0  0  0  0  0
    1.7401    0.0004    0.0000 C   0  0  0  0  0  0  0  0  0  0  0  0
    0.4027    0.6797    0.0000 C   0  0  0  0  0  0  0  0  0  0  0  0
    3.1579   -2.1768    0.0000 O   0  0  0  0  0  0  0  0  0  0  0  0
    4.4148   -1.3582    0.0000 C   0  0  0  0  0  0  0  0  0  0  0  0
    5.6718   -0.5397    0.0000 C   0  0  0  0  0  0  0  0  0  0  0  0
    6.9288    0.2789    0.0000 N   0  0  0  0  0  0  0  0  0  0  0  0
    6.8484    1.7767    0.0000 C   0  0  0  0  0  0  0  0  0  0  0  0
    8.2661   -0.4004    0.0000 C   0  0  0  0  0  0  0  0  0  0  0  0
   -3.3682   -1.7760    0.0000 C   0  0  0  0  0  0  0  0  0  0  0  0
   -4.6252   -2.5945    0.0000 C   0  0  0  0  0  0  0  0  0  0  0  0
   -4.5448   -4.0924    0.0000 C   0  0  0  0  0  0  0  0  0  0  0  0
   -3.2074   -4.7717    0.0000 C   0  0  0  0  0  0  0  0  0  0  0  0
   -1.9504   -3.9531    0.0000 C   0  0  0  0  0  0  0  0  0  0  0  0
   -2.0308   -2.4553    0.0000 C   0  0  0  0  0  0  0  0  0  0  0  0
   -6.8026   -0.2569    0.0000 H   0  0  0  0  0  0  0  0  0  0  0  0
   -5.7093    2.2227    0.0000 H   0  0  0  0  0  0  0  0  0  0  0  0
   -7.4607    1.7597    0.0000 H   0  0  0  0  0  0  0  0  0  0  0  0
   -5.4653   -0.9362    0.0000 H   0  0  0  0  0  0  0  0  0  0  0  0
   -4.4133    1.4292    0.0000 H   0  0  0  0  0  0  0  0  0  0  0  0
    0.3951    2.3456    0.0000 H   0  0  0  0  0  0  0  0  0  0  0  0
    0.1615    5.1732    0.0000 H   0  0  0  0  0  0  0  0  0  0  0  0
   -2.5132    6.5318    0.0000 H   0  0  0  0  0  0  0  0  0  0  0  0
   -5.0272    4.8947    0.0000 H   0  0  0  0  0  0  0  0  0  0  0  0
   -4.4465    2.4282    0.0000 H   0  0  0  0  0  0  0  0  0  0  0  0
   -1.3168   -2.2205    0.0000 H   0  0  0  0  0  0  0  0  0  0  0  0
    0.6439   -3.8139    0.0000 H   0  0  0  0  0  0  0  0  0  0  0  0
    2.9971    0.8189    0.0000 H   0  0  0  0  0  0  0  0  0  0  0  0
    0.5055    2.1761    0.0000 H   0  0  0  0  0  0  0  0  0  0  0  0
    5.2334   -2.6152    0.0000 H   0  0  0  0  0  0  0  0  0  0  0  0
    3.5963   -0.1012    0.0000 H   0  0  0  0  0  0  0  0  0  0  0  0
    4.8532    0.7173    0.0000 H   0  0  0  0  0  0  0  0  0  0  0  0
    6.4903   -1.7966    0.0000 H   0  0  0  0  0  0  0  0  0  0  0  0
    8.3462    1.8571    0.0000 H   0  0  0  0  0  0  0  0  0  0  0  0
    5.3505    1.6963    0.0000 H   0  0  0  0  0  0  0  0  0  0  0  0
    6.7680    3.2746    0.0000 H   0  0  0  0  0  0  0  0  0  0  0  0
    8.9454    0.9370    0.0000 H   0  0  0  0  0  0  0  0  0  0  0  0
    7.5868   -1.7378    0.0000 H   0  0  0  0  0  0  0  0  0  0  0  0
    9.6035   -1.0797    0.0000 H   0  0  0  0  0  0  0  0  0  0  0  0
   -5.9625   -1.9152    0.0000 H   0  0  0  0  0  0  0  0  0  0  0  0
   -5.8017   -4.9109    0.0000 H   0  0  0  0  0  0  0  0  0  0  0  0
   -3.1270   -6.2695    0.0000 H   0  0  0  0  0  0  0  0  0  0  0  0
   -0.6131   -4.6324    0.0000 H   0  0  0  0  0  0  0  0  0  0  0  0
   -0.6131   -1.9652    0.0000 H   0  0  0  0  0  0  0  0  0  0  0  0
  1  2  1  0
  1 29  1  0
  1 30  1  0
  1 31  1  0
  2  3  1  0
  2 32  1  0
  2 33  1  0
  3  4  2  0
  3 23  1  0
  4  5  1  0
  4 11  1  0
  5  6  2  0
  5 10  1  0
  6  7  1  0
  6 34  1  0
  7  8  2  0
  7 35  1  0
  8  9  1  0
  8 36  1  0
  9 10  2  0
  9 37  1  0
 10 38  1  0
 11 12  2  0
 11 16  1  0
 12 13  1  0
 12 39  1  0
 13 14  2  0
 13 40  1  0
 14 15  1  0
 14 17  1  0
 15 16  2  0
 15 41  1  0
 16 42  1  0
 17 18  1  0
 18 19  1  0
 18 43  1  0
 18 44  1  0
 19 20  1  0
 19 45  1  0
 19 46  1  0
 20 21  1  0
 20 22  1  0
 21 47  1  0
 21 48  1  0
 21 49  1  0
 22 50  1  0
 22 51  1  0
 22 52  1  0
 23 24  2  0
 23 28  1  0
 24 25  1  0
 24 53  1  0
 25 26  2  0
 25 54  1  0
 26 27  1  0
 26 55  1  0
 27 28  2  0
 27 56  1  0
 28 57  1  0
M  END
$$$$

     RDKit          2D

 79 81  0  0  1  0  0  0  0  0999 V2000
    2.0865   -5.2602    0.0000 C   0  0  0  0  0  0  0  0  0  0  0  0
    1.4192   -3.9168    0.0000 C   0  0  0  0  0  0  0  0  0  0  0  0
    0.7520   -2.5734    0.0000 C   0  0  0  0  0  0  0  0  0  0  0  0
   -0.4552   -3.4638    0.0000 C   0  0  0  0  0  0  0  0  0  0  0  0
   -1.8299   -2.8636    0.0000 N   0  0  0  0  0  0  0  0  0  0  0  0
   -3.0370   -3.7541    0.0000 C   0  0  0  0  0  0  0  0  0  0  0  0
   -4.4117   -3.1539    0.0000 C   0  0  0  0  0  0  0  0  0  0  0  0
   -4.5792   -1.6633    0.0000 C   0  0  0  0  0  0  0  0  0  0  0  0
   -5.9539   -1.0631    0.0000 C   0  0  0  0  0  0  0  0  0  0  0  0
   -6.1215    0.4275    0.0000 C   0  0  0  0  0  0  0  0  0  0  0  0
   -4.9144    1.3179    0.0000 C   0  0  0  0  0  0  0  0  0  0  0  0
   -3.5397    0.7178    0.0000 C   0  0  0  0  0  0  0  0  0  0  0  0
   -3.3721   -0.7729    0.0000 C   0  0  0  0  0  0  0  0  0  0  0  0
   -1.9974   -1.3730    0.0000 C   0  0  0  0  0  0  0  0  0  0  0  0
   -0.7903   -0.4826    0.0000 C   0  0  0  0  0  0  0  0  0  0  0  0
    0.5844   -1.0828    0.0000 C   0  0  0  0  0  0  0  0  0  0  0  0
    2.0814   -1.1766    0.0000 C   0  0  0  0  0  0  0  0  0  0  0  0
    3.5785   -1.2704    0.0000 C   0  0  0  0  0  0  0  0  0  0  0  0
    3.4109    0.2202    0.0000 C   0  0  0  0  0  0  0  0  0  0  0  0
    2.0362    0.8204    0.0000 C   0  0  0  0  0  0  0  0  0  0  0  0
    1.8687    2.3110    0.0000 C   0  0  0  0  0  0  0  0  0  0  0  0
    3.0758    3.2014    0.0000 C   0  0  0  0  0  0  0  0  0  0  0  0
    4.4505    2.6012    0.0000 C   0  0  0  0  0  0  0  0  0  0  0  0
    4.6181    1.1106    0.0000 C   0  0  0  0  0  0  0  0  0  0  0  0
    5.9927    0.5104    0.0000 C   0  0  0  0  0  0  0  0  0  0  0  0
    6.1603   -0.9802    0.0000 C   0  0  0  0  0  0  0  0  0  0  0  0
    4.9532   -1.8706    0.0000 N   0  0  0  0  0  0  0  0  0  0  0  0
    2.9082    4.6920    0.0000 O   0  0  0  0  0  0  0  0  0  0  0  0
    4.1153    5.5825    0.0000 C   0  0  0  0  0  0  0  0  0  0  0  0
    0.4940    2.9112    0.0000 O   0  0  0  0  0  0  0  0  0  0  0  0
    0.3264    4.4018    0.0000 C   0  0  0  0  0  0  0  0  0  0  0  0
   -5.0820    2.8086    0.0000 O   0  0  0  0  0  0  0  0  0  0  0  0
   -3.8748    3.6990    0.0000 C   0  0  0  0  0  0  0  0  0  0  0  0
   -7.4962    1.0277    0.0000 O   0  0  0  0  0  0  0  0  0  0  0  0
   -7.6638    2.5183    0.0000 C   0  0  0  0  0  0  0  0  0  0  0  0
   -0.7500    7.7896    0.0000 Cl  0  0  0  0  0  0  0  0  0  0  0  0
   -0.7500    8.7896    0.0000 Cl  0  0  0  0  0  0  0  0  0  0  0  0
    3.4299   -4.5929    0.0000 H   0  0  0  0  0  0  0  0  0  0  0  0
    0.7431   -5.9275    0.0000 H   0  0  0  0  0  0  0  0  0  0  0  0
    2.7538   -6.6036    0.0000 H   0  0  0  0  0  0  0  0  0  0  0  0
    0.7539   -4.3558    0.0000 H   0  0  0  0  0  0  0  0  0  0  0  0
    2.8340   -3.4182    0.0000 H   0  0  0  0  0  0  0  0  0  0  0  0
    2.2318   -2.3281    0.0000 H   0  0  0  0  0  0  0  0  0  0  0  0
    0.0510   -4.0797    0.0000 H   0  0  0  0  0  0  0  0  0  0  0  0
   -1.1264   -4.8052    0.0000 H   0  0  0  0  0  0  0  0  0  0  0  0
   -3.8668   -5.0037    0.0000 H   0  0  0  0  0  0  0  0  0  0  0  0
   -2.0846   -4.9130    0.0000 H   0  0  0  0  0  0  0  0  0  0  0  0
   -5.9087   -3.0601    0.0000 H   0  0  0  0  0  0  0  0  0  0  0  0
   -4.7640   -4.6119    0.0000 H   0  0  0  0  0  0  0  0  0  0  0  0
   -7.1611   -1.9535    0.0000 H   0  0  0  0  0  0  0  0  0  0  0  0
   -2.3326    1.6082    0.0000 H   0  0  0  0  0  0  0  0  0  0  0  0
   -2.3455    0.0860    0.0000 H   0  0  0  0  0  0  0  0  0  0  0  0
   -1.7427    0.6763    0.0000 H   0  0  0  0  0  0  0  0  0  0  0  0
    0.0395    0.7670    0.0000 H   0  0  0  0  0  0  0  0  0  0  0  0
    0.7564    0.4073    0.0000 H   0  0  0  0  0  0  0  0  0  0  0  0
    1.8102    0.2987    0.0000 H   0  0  0  0  0  0  0  0  0  0  0  0
    2.1708   -2.6739    0.0000 H   0  0  0  0  0  0  0  0  0  0  0  0
    3.4065   -2.7605    0.0000 H   0  0  0  0  0  0  0  0  0  0  0  0
    0.7296    0.0837    0.0000 H   0  0  0  0  0  0  0  0  0  0  0  0
    5.6576    3.4917    0.0000 H   0  0  0  0  0  0  0  0  0  0  0  0
    7.4898    0.4166    0.0000 H   0  0  0  0  0  0  0  0  0  0  0  0
    6.3451    1.9685    0.0000 H   0  0  0  0  0  0  0  0  0  0  0  0
    6.8276   -2.3236    0.0000 H   0  0  0  0  0  0  0  0  0  0  0  0
    7.5992   -0.5563    0.0000 H   0  0  0  0  0  0  0  0  0  0  0  0
    5.1208   -3.3612    0.0000 H   0  0  0  0  0  0  0  0  0  0  0  0
    3.2249    6.7896    0.0000 H   0  0  0  0  0  0  0  0  0  0  0  0
    5.0058    4.3753    0.0000 H   0  0  0  0  0  0  0  0  0  0  0  0
    5.3225    6.4729    0.0000 H   0  0  0  0  0  0  0  0  0  0  0  0
   -1.1642    4.2342    0.0000 H   0  0  0  0  0  0  0  0  0  0  0  0
    1.8170    4.5694    0.0000 H   0  0  0  0  0  0  0  0  0  0  0  0
    0.1588    5.8924    0.0000 H   0  0  0  0  0  0  0  0  0  0  0  0
   -4.7653    4.9061    0.0000 H   0  0  0  0  0  0  0  0  0  0  0  0
   -2.9844    2.4919    0.0000 H   0  0  0  0  0  0  0  0  0  0  0  0
   -2.6677    4.5894    0.0000 H   0  0  0  0  0  0  0  0  0  0  0  0
   -9.1544    2.3507    0.0000 H   0  0  0  0  0  0  0  0  0  0  0  0
   -6.1732    2.6859    0.0000 H   0  0  0  0  0  0  0  0  0  0  0  0
   -7.8313    4.0089    0.0000 H   0  0  0  0  0  0  0  0  0  0  0  0
    0.7500    7.7896    0.0000 H   0  0  0  0  0  0  0  0  0  0  0  0
    0.7500    8.7896    0.0000 H   0  0  0  0  0  0  0  0  0  0  0  0
  1  2  1  0
  1 38  1  0
  1 39  1  0
  1 40  1  0
  2  3  1  0
  2 41  1  0
  2 42  1  0
  3  4  1  0
  3 16  1  0
  3 43  1  6
  4  5  1  0
  4 44  1  0
  4 45  1  0
  5  6  1  0
  5 14  1  0
  6  7  1  0
  6 46  1  0
  6 47  1  0
  7  8  1  0
  7 48  1  0
  7 49  1  0
  8  9  2  0
  8 13  1  0
  9 10  1  0
  9 50  1  0
 10 11  2  0
 10 34  1  0
 11 12  1  0
 11 32  1  0
 12 13  2  0
 12 51  1  0
 13 14  1  0
 14 15  1  0
 14 52  1  1
 15 16  1  0
 15 53  1  0
 15 54  1  0
 16 55  1  1
 16 17  1  0
 17 56  1  0
 17 57  1  0
 18 19  1  0
 18 27  1  0
 18 58  1  1
 18 17  1  0
 19 20  2  0
 19 24  1  0
 20 21  1  0
 20 59  1  0
 21 22  2  0
 21 30  1  0
 22 23  1  0
 22 28  1  0
 23 24  2  0
 23 60  1  0
 24 25  1  0
 25 26  1  0
 25 61  1  0
 25 62  1  0
 26 27  1  0
 26 63  1  0
 26 64  1  0
 27 65  1  0
 28 29  1  0
 29 66  1  0
 29 67  1  0
 29 68  1  0
 30 31  1  0
 31 69  1  0
 31 70  1  0
 31 71  1  0
 32 33  1  0
 33 72  1  0
 33 73  1  0
 33 74  1  0
 34 35  1  0
 35 75  1  0
 35 76  1  0
 35 77  1  0
 36 78  1  0
 37 79  1  0
M  END
$$$$

     RDKit          2D

 25 22  0  0  0  0  0  0  0  0999 V2000
   -1.2990   -0.6250    0.0000 C   0  0  0  0  0  0  0  0  0  0  0  0
   -0.0000    0.1250    0.0000 N   0  0  0  0  0  0  0  0  0  0  0  0
    1.2990   -0.6250    0.0000 C   0  0  0  0  0  0  0  0  0  0  0  0
   -0.0000    1.6250    0.0000 C   0  0  0  0  0  0  0  0  0  0  0  0
   -1.2990    2.3750    0.0000 S   0  0  0  0  0  0  0  0  0  0  0  0
    1.2990    2.3750    0.0000 S   0  0  0  0  0  0  0  0  0  0  0  0
   -1.2990    4.6740    0.0000 C   0  0  0  0  0  0  0  0  0  0  0  0
   -0.0000    5.4240    0.0000 N   0  0  0  0  0  0  0  0  0  0  0  0
    1.2990    4.6740    0.0000 C   0  0  0  0  0  0  0  0  0  0  0  0
   -0.0000    6.9240    0.0000 C   0  0  0  0  0  0  0  0  0  0  0  0
   -1.2990    7.6740    0.0000 S   0  0  0  0  0  0  0  0  0  0  0  0
    1.2990    7.6740    0.0000 S   0  0  0  0  0  0  0  0  0  0  0  0
    3.5981    0.0000    0.0000 Zn  0  0  0  0  0 15  0  0  0  0  0  0
   -0.5490   -1.9240    0.0000 H   0  0  0  0  0  0  0  0  0  0  0  0
   -2.0490    0.6740    0.0000 H   0  0  0  0  0  0  0  0  0  0  0  0
   -2.5981   -1.3750    0.0000 H   0  0  0  0  0  0  0  0  0  0  0  0
    0.5490   -1.9240    0.0000 H   0  0  0  0  0  0  0  0  0  0  0  0
    2.0490    0.6740    0.0000 H   0  0  0  0  0  0  0  0  0  0  0  0
    2.5981   -1.3750    0.0000 H   0  0  0  0  0  0  0  0  0  0  0  0
   -0.5490    3.3750    0.0000 H   0  0  0  0  0  0  0  0  0  0  0  0
   -2.0490    5.9731    0.0000 H   0  0  0  0  0  0  0  0  0  0  0  0
   -2.5981    3.9240    0.0000 H   0  0  0  0  0  0  0  0  0  0  0  0
    0.5490    3.3750    0.0000 H   0  0  0  0  0  0  0  0  0  0  0  0
    2.0490    5.9731    0.0000 H   0  0  0  0  0  0  0  0  0  0  0  0
    2.5981    3.9240    0.0000 H   0  0  0  0  0  0  0  0  0  0  0  0
  1  2  1  0
  1 14  1  0
  1 15  1  0
  1 16  1  0
  2  3  1  0
  2  4  1  0
  3 17  1  0
  3 18  1  0
  3 19  1  0
  4  5  2  0
  4  6  1  0
  7  8  1  0
  7 20  1  0
  7 21  1  0
  7 22  1  0
  8  9  1  0
  8 10  1  0
  9 23  1  0
  9 24  1  0
  9 25  1  0
 10 11  2  0
 10 12  1  0
M  CHG  3   6  -1  12  -1  13   2
M  END
$$$$

     RDKit          2D

 46 48  0  0  0  0  0  0  0  0999 V2000
    4.3028   -1.9532    0.0000 C   0  0  0  0  0  0  0  0  0  0  0  0
    3.6621   -0.5969    0.0000 C   0  0  0  0  0  0  0  0  0  0  0  0
    5.1090   -0.2015    0.0000 C   0  0  0  0  0  0  0  0  0  0  0  0
    5.4901    1.2493    0.0000 C   0  0  0  0  0  0  0  0  0  0  0  0
    4.4241    2.3047    0.0000 C   0  0  0  0  0  0  0  0  0  0  0  0
    2.9772    1.9093    0.0000 C   0  0  0  0  0  0  0  0  0  0  0  0
    2.5962    0.4585    0.0000 C   0  0  0  0  0  0  0  0  0  0  0  0
    2.4377   -1.4634    0.0000 C   0  0  0  0  0  0  0  0  0  0  0  0
    1.2132   -2.3298    0.0000 O   0  0  0  0  0  0  0  0  0  0  0  0
   -0.1494   -1.7027    0.0000 C   0  0  0  0  0  0  0  0  0  0  0  0
   -0.2875   -0.2091    0.0000 C   0  0  0  0  0  0  0  0  0  0  0  0
   -1.6501    0.4181    0.0000 C   0  0  0  0  0  0  0  0  0  0  0  0
   -2.8746   -0.4484    0.0000 C   0  0  0  0  0  0  0  0  0  0  0  0
   -2.7364   -1.9420    0.0000 C   0  0  0  0  0  0  0  0  0  0  0  0
   -1.3738   -2.5691    0.0000 C   0  0  0  0  0  0  0  0  0  0  0  0
   -4.2372    0.1788    0.0000 C   0  0  0  0  0  0  0  0  0  0  0  0
   -5.5998    0.8059    0.0000 C   0  0  0  0  0  0  0  0  0  0  0  0
   -6.8022    1.7027    0.0000 C   0  0  0  0  0  0  0  0  0  0  0  0
   -6.7835    3.2026    0.0000 O   0  0  0  0  0  0  0  0  0  0  0  0
   -8.0266    0.8362    0.0000 N   0  0  0  0  0  0  0  0  0  0  0  0
   -7.5809   -0.5960    0.0000 C   0  0  0  0  0  0  0  0  0  0  0  0
   -8.4777   -1.7985    0.0000 O   0  0  0  0  0  0  0  0  0  0  0  0
   -6.0810   -0.6147    0.0000 S   0  0  0  0  0  0  0  0  0  0  0  0
    3.0347   -2.7544    0.0000 H   0  0  0  0  0  0  0  0  0  0  0  0
    5.0597   -1.7031    0.0000 H   0  0  0  0  0  0  0  0  0  0  0  0
    4.9435   -3.3095    0.0000 H   0  0  0  0  0  0  0  0  0  0  0  0
    6.6040   -0.3248    0.0000 H   0  0  0  0  0  0  0  0  0  0  0  0
    5.2787   -0.9804    0.0000 H   0  0  0  0  0  0  0  0  0  0  0  0
    6.3443    2.4823    0.0000 H   0  0  0  0  0  0  0  0  0  0  0  0
    6.8527    0.6222    0.0000 H   0  0  0  0  0  0  0  0  0  0  0  0
    3.7835    3.6610    0.0000 H   0  0  0  0  0  0  0  0  0  0  0  0
    5.6486    3.1712    0.0000 H   0  0  0  0  0  0  0  0  0  0  0  0
    1.4823    2.0326    0.0000 H   0  0  0  0  0  0  0  0  0  0  0  0
    2.8390    3.4029    0.0000 H   0  0  0  0  0  0  0  0  0  0  0  0
    1.5980   -0.6612    0.0000 H   0  0  0  0  0  0  0  0  0  0  0  0
    1.3202    1.2470    0.0000 H   0  0  0  0  0  0  0  0  0  0  0  0
    1.4284   -0.3537    0.0000 H   0  0  0  0  0  0  0  0  0  0  0  0
    3.1484   -2.7843    0.0000 H   0  0  0  0  0  0  0  0  0  0  0  0
    0.8222    0.8002    0.0000 H   0  0  0  0  0  0  0  0  0  0  0  0
   -1.7883    1.9117    0.0000 H   0  0  0  0  0  0  0  0  0  0  0  0
   -3.9608   -2.8085    0.0000 H   0  0  0  0  0  0  0  0  0  0  0  0
   -1.2356   -4.0628    0.0000 H   0  0  0  0  0  0  0  0  0  0  0  0
   -3.6100    1.5414    0.0000 H   0  0  0  0  0  0  0  0  0  0  0  0
   -4.8643   -1.1838    0.0000 H   0  0  0  0  0  0  0  0  0  0  0  0
   -4.8336    2.0955    0.0000 H   0  0  0  0  0  0  0  0  0  0  0  0
   -9.4473    1.3175    0.0000 H   0  0  0  0  0  0  0  0  0  0  0  0
  1  2  1  0
  1 24  1  0
  1 25  1  0
  1 26  1  0
  2  3  1  0
  2  7  1  0
  2  8  1  0
  3  4  1  0
  3 27  1  0
  3 28  1  0
  4  5  1  0
  4 29  1  0
  4 30  1  0
  5  6  1  0
  5 31  1  0
  5 32  1  0
  6  7  1  0
  6 33  1  0
  6 34  1  0
  7 35  1  0
  7 36  1  0
  8  9  1  0
  8 37  1  0
  8 38  1  0
  9 10  1  0
 10 11  2  0
 10 15  1  0
 11 12  1  0
 11 39  1  0
 12 13  2  0
 12 40  1  0
 13 14  1  0
 13 16  1  0
 14 15  2  0
 14 41  1  0
 15 42  1  0
 16 17  1  0
 16 43  1  0
 16 44  1  0
 17 18  1  0
 17 23  1  0
 17 45  1  1
 18 19  2  0
 18 20  1  0
 20 21  1  0
 20 46  1  0
 21 22  2  0
 21 23  1  0
M  END
$$$$

     RDKit          2D

 27 28  0  0  0  0  0  0  0  0999 V2000
    3.8433   -0.7734    0.0000 C   0  0  0  0  0  0  0  0  0  0  0  0
    2.5825   -1.5861    0.0000 C   0  0  0  0  0  0  0  0  0  0  0  0
    1.2484   -0.9005    0.0000 C   0  0  0  0  0  0  0  0  0  0  0  0
    1.1750    0.5977    0.0000 C   0  0  0  0  0  0  0  0  0  0  0  0
    2.4358    1.4103    0.0000 C   0  0  0  0  0  0  0  0  0  0  0  0
    3.7699    0.7248    0.0000 C   0  0  0  0  0  0  0  0  0  0  0  0
    5.0307    1.5374    0.0000 N   0  0  0  0  0  0  0  0  0  0  0  0
    6.3649    0.8519    0.0000 C   0  0  0  0  0  0  0  0  0  0  0  0
    7.6991    0.1663    0.0000 S   0  0  0  0  0  0  0  0  0  0  0  0
   -0.0124   -1.7132    0.0000 O   0  0  0  0  0  0  0  0  0  0  0  0
   -1.3466   -1.0277    0.0000 C   0  0  0  0  0  0  0  0  0  0  0  0
   -1.4200    0.4706    0.0000 C   0  0  0  0  0  0  0  0  0  0  0  0
   -2.7542    1.1561    0.0000 C   0  0  0  0  0  0  0  0  0  0  0  0
   -4.0149    0.3434    0.0000 C   0  0  0  0  0  0  0  0  0  0  0  0
   -3.9416   -1.1548    0.0000 C   0  0  0  0  0  0  0  0  0  0  0  0
   -2.6074   -1.8403    0.0000 C   0  0  0  0  0  0  0  0  0  0  0  0
   -5.3491    1.0290    0.0000 N   0  0  0  0  0  0  0  0  0  0  0  0
   -5.4225    2.5272    0.0000 O   0  0  0  0  0  0  0  0  0  0  0  0
   -6.6099    0.2163    0.0000 O   0  0  0  0  0  0  0  0  0  0  0  0
    5.1775   -1.4590    0.0000 H   0  0  0  0  0  0  0  0  0  0  0  0
    2.6559   -3.0843    0.0000 H   0  0  0  0  0  0  0  0  0  0  0  0
    0.3610    1.1508    0.0000 H   0  0  0  0  0  0  0  0  0  0  0  0
    2.3624    2.9085    0.0000 H   0  0  0  0  0  0  0  0  0  0  0  0
   -0.6639    1.1006    0.0000 H   0  0  0  0  0  0  0  0  0  0  0  0
   -2.8275    2.6543    0.0000 H   0  0  0  0  0  0  0  0  0  0  0  0
   -5.2024   -1.9674    0.0000 H   0  0  0  0  0  0  0  0  0  0  0  0
   -2.5340   -3.3385    0.0000 H   0  0  0  0  0  0  0  0  0  0  0  0
  1  2  2  0
  1  6  1  0
  1 20  1  0
  2  3  1  0
  2 21  1  0
  3  4  2  0
  3 10  1  0
  4  5  1  0
  4 22  1  0
  5  6  2  0
  5 23  1  0
  6  7  1  0
  7  8  2  0
  8  9  2  0
 10 11  1  0
 11 12  2  0
 11 16  1  0
 12 13  1  0
 12 24  1  0
 13 14  2  0
 13 25  1  0
 14 15  1  0
 14 17  1  0
 15 16  2  0
 15 26  1  0
 16 27  1  0
 17 18  2  0
 17 19  1  0
M  CHG  2  17   1  19  -1
M  END
$$$$

     RDKit          2D

 42 45  0  0  0  0  0  0  0  0999 V2000
    6.8355   -0.3040    0.0000 C   0  0  0  0  0  0  0  0  0  0  0  0
    5.8751   -1.4562    0.0000 C   0  0  0  0  0  0  0  0  0  0  0  0
    4.3970   -1.2006    0.0000 C   0  0  0  0  0  0  0  0  0  0  0  0
    3.8794    0.2072    0.0000 C   0  0  0  0  0  0  0  0  0  0  0  0
    4.8398    1.3595    0.0000 C   0  0  0  0  0  0  0  0  0  0  0  0
    6.3178    1.1039    0.0000 C   0  0  0  0  0  0  0  0  0  0  0  0
    2.4013    0.4628    0.0000 C   0  0  0  0  0  0  0  0  0  0  0  0
    1.8836    1.8707    0.0000 C   0  0  0  0  0  0  0  0  0  0  0  0
    0.4056    2.1263    0.0000 C   0  0  0  0  0  0  0  0  0  0  0  0
   -0.5548    0.9741    0.0000 C   0  0  0  0  0  0  0  0  0  0  0  0
   -0.0372   -0.4338    0.0000 C   0  0  0  0  0  0  0  0  0  0  0  0
    1.4409   -0.6894    0.0000 C   0  0  0  0  0  0  0  0  0  0  0  0
   -2.0329    1.2297    0.0000 C   0  0  0  0  0  0  0  0  0  0  0  0
   -2.2885   -0.2484    0.0000 C   0  0  0  0  0  0  0  0  0  0  0  0
   -3.6963   -0.7660    0.0000 C   0  0  0  0  0  0  0  0  0  0  0  0
   -3.9520   -2.2441    0.0000 C   0  0  0  0  0  0  0  0  0  0  0  0
   -2.7997   -3.2045    0.0000 C   0  0  0  0  0  0  0  0  0  0  0  0
   -1.3919   -2.6868    0.0000 C   0  0  0  0  0  0  0  0  0  0  0  0
   -1.1363   -1.2088    0.0000 C   0  0  0  0  0  0  0  0  0  0  0  0
   -3.5109    1.4853    0.0000 N   0  0  0  0  0  0  0  0  0  0  0  0
   -4.5865    0.4398    0.0000 C   0  0  0  0  0  0  0  0  0  0  0  0
   -5.9132    1.1396    0.0000 C   0  0  0  0  0  0  0  0  0  0  0  0
   -5.6576    2.6177    0.0000 N   0  0  0  0  0  0  0  0  0  0  0  0
   -4.1729    2.8313    0.0000 C   0  0  0  0  0  0  0  0  0  0  0  0
    8.3135   -0.5596    0.0000 H   0  0  0  0  0  0  0  0  0  0  0  0
    6.3927   -2.8641    0.0000 H   0  0  0  0  0  0  0  0  0  0  0  0
    3.4366   -2.3528    0.0000 H   0  0  0  0  0  0  0  0  0  0  0  0
    4.3221    2.7673    0.0000 H   0  0  0  0  0  0  0  0  0  0  0  0
    7.2782    2.2561    0.0000 H   0  0  0  0  0  0  0  0  0  0  0  0
    2.8440    3.0229    0.0000 H   0  0  0  0  0  0  0  0  0  0  0  0
   -0.1121    3.5342    0.0000 H   0  0  0  0  0  0  0  0  0  0  0  0
   -0.3842   -1.1514    0.0000 H   0  0  0  0  0  0  0  0  0  0  0  0
    1.9586   -2.0972    0.0000 H   0  0  0  0  0  0  0  0  0  0  0  0
   -1.7773    2.7078    0.0000 H   0  0  0  0  0  0  0  0  0  0  0  0
   -5.0467   -0.1130    0.0000 H   0  0  0  0  0  0  0  0  0  0  0  0
   -5.3598   -2.7617    0.0000 H   0  0  0  0  0  0  0  0  0  0  0  0
   -3.0553   -4.6825    0.0000 H   0  0  0  0  0  0  0  0  0  0  0  0
   -0.2397   -3.6472    0.0000 H   0  0  0  0  0  0  0  0  0  0  0  0
    0.3550   -1.0471    0.0000 H   0  0  0  0  0  0  0  0  0  0  0  0
   -4.7385   -1.0525    0.0000 H   0  0  0  0  0  0  0  0  0  0  0  0
   -7.2593    0.4776    0.0000 H   0  0  0  0  0  0  0  0  0  0  0  0
   -3.4731    4.1581    0.0000 H   0  0  0  0  0  0  0  0  0  0  0  0
  1  2  2  0
  1  6  1  0
  1 25  1  0
  2  3  1  0
  2 26  1  0
  3  4  2  0
  3 27  1  0
  4  5  1  0
  4  7  1  0
  5  6  2  0
  5 28  1  0
  6 29  1  0
  7  8  2  0
  7 12  1  0
  8  9  1  0
  8 30  1  0
  9 10  2  0
  9 31  1  0
 10 11  1  0
 10 13  1  0
 11 12  2  0
 11 32  1  0
 12 33  1  0
 13 14  1  0
 13 20  1  0
 13 34  1  6
 14 15  2  0
 14 19  1  0
 15 16  1  0
 15 35  1  0
 16 17  2  0
 16 36  1  0
 17 18  1  0
 17 37  1  0
 18 19  2  0
 18 38  1  0
 19 39  1  0
 20 21  1  0
 20 24  1  0
 21 22  2  0
 21 40  1  0
 22 23  1  0
 22 41  1  0
 23 24  2  0
 24 42  1  0
M  END
$$$$

     RDKit          2D

 72 73  0  0  1  0  0  0  0  0999 V2000
   -5.0054   -1.1491    0.0000 C   0  0  0  0  0  0  0  0  0  0  0  0
   -3.6492   -1.7898    0.0000 C   0  0  0  0  0  0  0  0  0  0  0  0
   -2.4161   -0.9357    0.0000 C   0  0  0  0  0  0  0  0  0  0  0  0
   -1.3378   -1.9784    0.0000 C   0  0  0  0  0  0  0  0  0  0  0  0
   -1.9903   -3.3290    0.0000 O   0  0  0  0  0  0  0  0  0  0  0  0
    0.0574   -2.5290    0.0000 N   0  0  0  0  0  0  0  0  0  0  0  0
    1.5572   -2.5038    0.0000 C   0  0  0  0  0  0  0  0  0  0  0  0
    2.9332   -1.9066    0.0000 C   0  0  0  0  0  0  0  0  0  0  0  0
    4.0604   -2.8963    0.0000 O   0  0  0  0  0  0  0  0  0  0  0  0
    3.9759   -0.8283    0.0000 O   0  0  0  0  0  0  0  0  0  0  0  0
    4.1862    0.7013    0.0000 C   0  0  0  0  0  0  0  0  0  0  0  0
    3.2313   -0.4555    0.0000 C   0  0  0  0  0  0  0  0  0  0  0  0
    1.8885   -1.1239    0.0000 C   0  0  0  0  0  0  0  0  0  0  0  0
    1.8949   -1.9211    0.0000 O   0  0  0  0  0  0  0  0  0  0  0  0
    0.3899   -1.1884    0.0000 N   0  0  0  0  0  0  0  0  0  0  0  0
   -1.0054   -0.6377    0.0000 C   0  0  0  0  0  0  0  0  0  0  0  0
   -2.0560    0.4329    0.0000 C   0  0  0  0  0  0  0  0  0  0  0  0
   -3.3217   -0.3722    0.0000 O   0  0  0  0  0  0  0  0  0  0  0  0
   -2.5804    1.8382    0.0000 N   0  0  0  0  0  0  0  0  0  0  0  0
   -2.4879    3.3354    0.0000 C   0  0  0  0  0  0  0  0  0  0  0  0
   -1.7944    4.6654    0.0000 C   0  0  0  0  0  0  0  0  0  0  0  0
   -0.6198    5.5984    0.0000 S   0  0  0  0  0  0  0  0  0  0  0  0
    0.8326    5.9730    0.0000 S   0  0  0  0  0  0  0  0  0  0  0  0
    2.3119    5.7245    0.0000 C   0  0  0  0  0  0  0  0  0  0  0  0
    3.5622    4.8958    0.0000 C   0  0  0  0  0  0  0  0  0  0  0  0
    4.3673    3.6301    0.0000 C   0  0  0  0  0  0  0  0  0  0  0  0
    3.9655    2.1850    0.0000 C   0  0  0  0  0  0  0  0  0  0  0  0
   -3.0385    1.9401    0.0000 C   0  0  0  0  0  0  0  0  0  0  0  0
   -4.4708    2.3859    0.0000 O   0  0  0  0  0  0  0  0  0  0  0  0
   -3.0134    0.4403    0.0000 N   0  0  0  0  0  0  0  0  0  0  0  0
   -2.3916   -1.2108    0.0000 C   0  0  0  0  0  0  0  0  0  0  0  0
   -2.9647    0.1754    0.0000 C   0  0  0  0  0  0  0  0  0  0  0  0
   -3.7778   -1.7839    0.0000 C   0  0  0  0  0  0  0  0  0  0  0  0
    2.6356   -3.5465    0.0000 C   0  0  0  0  0  0  0  0  0  0  0  0
    3.6783   -2.4682    0.0000 C   0  0  0  0  0  0  0  0  0  0  0  0
    3.7139   -4.5892    0.0000 C   0  0  0  0  0  0  0  0  0  0  0  0
   -5.8067   -2.4171    0.0000 H   0  0  0  0  0  0  0  0  0  0  0  0
   -4.8934    0.3467    0.0000 H   0  0  0  0  0  0  0  0  0  0  0  0
   -6.3617   -0.5083    0.0000 H   0  0  0  0  0  0  0  0  0  0  0  0
   -3.3446   -3.2586    0.0000 H   0  0  0  0  0  0  0  0  0  0  0  0
   -0.2104   -4.0049    0.0000 H   0  0  0  0  0  0  0  0  0  0  0  0
    1.0066   -3.8991    0.0000 H   0  0  0  0  0  0  0  0  0  0  0  0
    5.6834    0.6087    0.0000 H   0  0  0  0  0  0  0  0  0  0  0  0
    4.5958   -1.0785    0.0000 H   0  0  0  0  0  0  0  0  0  0  0  0
    3.3480   -1.9510    0.0000 H   0  0  0  0  0  0  0  0  0  0  0  0
   -0.2092   -2.5635    0.0000 H   0  0  0  0  0  0  0  0  0  0  0  0
   -0.6307   -2.0901    0.0000 H   0  0  0  0  0  0  0  0  0  0  0  0
   -4.0641    1.6175    0.0000 H   0  0  0  0  0  0  0  0  0  0  0  0
   -3.9331    3.7372    0.0000 H   0  0  0  0  0  0  0  0  0  0  0  0
   -3.2874    4.8102    0.0000 H   0  0  0  0  0  0  0  0  0  0  0  0
   -2.2194    6.1039    0.0000 H   0  0  0  0  0  0  0  0  0  0  0  0
    1.9882    7.1892    0.0000 H   0  0  0  0  0  0  0  0  0  0  0  0
    3.4360    6.7177    0.0000 H   0  0  0  0  0  0  0  0  0  0  0  0
    4.0391    6.3179    0.0000 H   0  0  0  0  0  0  0  0  0  0  0  0
    5.0372    5.1681    0.0000 H   0  0  0  0  0  0  0  0  0  0  0  0
    5.7726    4.1545    0.0000 H   0  0  0  0  0  0  0  0  0  0  0  0
    2.4683    2.2775    0.0000 H   0  0  0  0  0  0  0  0  0  0  0  0
   -4.4957    0.6696    0.0000 H   0  0  0  0  0  0  0  0  0  0  0  0
   -2.3534   -2.7103    0.0000 H   0  0  0  0  0  0  0  0  0  0  0  0
   -1.7584    1.0669    0.0000 H   0  0  0  0  0  0  0  0  0  0  0  0
   -4.4104   -0.2245    0.0000 H   0  0  0  0  0  0  0  0  0  0  0  0
   -3.9966    1.2641    0.0000 H   0  0  0  0  0  0  0  0  0  0  0  0
   -3.3779   -3.2296    0.0000 H   0  0  0  0  0  0  0  0  0  0  0  0
   -4.5156   -0.4779    0.0000 H   0  0  0  0  0  0  0  0  0  0  0  0
   -5.0838   -2.5217    0.0000 H   0  0  0  0  0  0  0  0  0  0  0  0
    1.5929   -4.6249    0.0000 H   0  0  0  0  0  0  0  0  0  0  0  0
    4.8756   -3.3717    0.0000 H   0  0  0  0  0  0  0  0  0  0  0  0
    2.5999   -1.4255    0.0000 H   0  0  0  0  0  0  0  0  0  0  0  0
    4.8446   -1.5250    0.0000 H   0  0  0  0  0  0  0  0  0  0  0  0
    2.6712   -5.6676    0.0000 H   0  0  0  0  0  0  0  0  0  0  0  0
    4.8802   -3.6461    0.0000 H   0  0  0  0  0  0  0  0  0  0  0  0
    4.7922   -5.6319    0.0000 H   0  0  0  0  0  0  0  0  0  0  0  0
  1  2  1  0
  1 37  1  0
  1 38  1  0
  1 39  1  0
  2  3  2  0
  2 40  1  0
  3  4  1  0
  3 30  1  0
  4  5  2  0
  4  6  1  0
  6  7  1  0
  6 41  1  0
  7  8  1  0
  7 34  1  0
  7 42  1  1
  8  9  2  0
  8 10  1  0
 10 11  1  0
 11 12  1  0
 11 27  1  0
 11 43  1  1
 12 13  1  0
 12 44  1  0
 12 45  1  0
 13 14  2  0
 13 15  1  0
 15 16  1  0
 15 46  1  0
 16 17  1  0
 16 47  1  1
 16 31  1  0
 17 18  2  0
 17 19  1  0
 19 20  1  0
 19 48  1  0
 20 21  1  0
 20 28  1  0
 20 49  1  6
 21 22  1  0
 21 50  1  0
 21 51  1  0
 22 23  1  0
 23 24  1  0
 24 25  1  0
 24 52  1  0
 24 53  1  0
 25 26  1  0
 25 54  1  0
 25 55  1  0
 26 27  2  0
 26 56  1  0
 27 57  1  0
 28 29  2  0
 28 30  1  0
 30 58  1  0
 31 32  1  0
 31 33  1  0
 31 59  1  0
 32 60  1  0
 32 61  1  0
 32 62  1  0
 33 63  1  0
 33 64  1  0
 33 65  1  0
 34 35  1  0
 34 36  1  0
 34 66  1  0
 35 67  1  0
 35 68  1  0
 35 69  1  0
 36 70  1  0
 36 71  1  0
 36 72  1  0
M  END
$$$$

     RDKit          2D

 63 67  0  0  0  0  0  0  0  0999 V2000
    8.3169   -0.4015    0.0000 C   0  0  0  0  0  0  0  0  0  0  0  0
    7.0520   -1.2078    0.0000 C   0  0  0  0  0  0  0  0  0  0  0  0
    6.2623   -2.4830    0.0000 C   0  0  0  0  0  0  0  0  0  0  0  0
    6.8915   -3.8447    0.0000 N   0  0  0  0  0  0  0  0  0  0  0  0
    5.7909   -4.8639    0.0000 N   0  0  0  0  0  0  0  0  0  0  0  0
    4.4815   -4.1321    0.0000 C   0  0  0  0  0  0  0  0  0  0  0  0
    4.7728   -2.6607    0.0000 N   0  0  0  0  0  0  0  0  0  0  0  0
    3.7053   -1.6070    0.0000 C   0  0  0  0  0  0  0  0  0  0  0  0
    3.8635   -0.1153    0.0000 C   0  0  0  0  0  0  0  0  0  0  0  0
    2.4938    0.4961    0.0000 C   0  0  0  0  0  0  0  0  0  0  0  0
    1.4890   -0.6177    0.0000 C   0  0  0  0  0  0  0  0  0  0  0  0
    2.2377   -1.9174    0.0000 S   0  0  0  0  0  0  0  0  0  0  0  0
   -0.0026   -0.4594    0.0000 C   0  0  0  0  0  0  0  0  0  0  0  0
   -1.4943   -0.3012    0.0000 C   0  0  0  0  0  0  0  0  0  0  0  0
   -2.9859   -0.1430    0.0000 C   0  0  0  0  0  0  0  0  0  0  0  0
   -3.5947    1.2279    0.0000 C   0  0  0  0  0  0  0  0  0  0  0  0
   -5.0863    1.3862    0.0000 C   0  0  0  0  0  0  0  0  0  0  0  0
   -5.9692    0.1735    0.0000 C   0  0  0  0  0  0  0  0  0  0  0  0
   -5.3604   -1.1974    0.0000 C   0  0  0  0  0  0  0  0  0  0  0  0
   -3.8687   -1.3556    0.0000 C   0  0  0  0  0  0  0  0  0  0  0  0
   -7.4608    0.3317    0.0000 C   0  0  0  0  0  0  0  0  0  0  0  0
   -8.9524    0.4899    0.0000 C   0  0  0  0  0  0  0  0  0  0  0  0
   -9.1106   -1.0017    0.0000 C   0  0  0  0  0  0  0  0  0  0  0  0
  -10.4440    0.6482    0.0000 C   0  0  0  0  0  0  0  0  0  0  0  0
    5.1284    0.6910    0.0000 C   0  0  0  0  0  0  0  0  0  0  0  0
    6.5474    0.2048    0.0000 N   0  0  0  0  0  0  0  0  0  0  0  0
    4.9507    2.1804    0.0000 C   0  0  0  0  0  0  0  0  0  0  0  0
    6.1518    3.0790    0.0000 C   0  0  0  0  0  0  0  0  0  0  0  0
    5.9741    4.5684    0.0000 C   0  0  0  0  0  0  0  0  0  0  0  0
    4.5954    5.1593    0.0000 C   0  0  0  0  0  0  0  0  0  0  0  0
    3.3943    4.2607    0.0000 C   0  0  0  0  0  0  0  0  0  0  0  0
    3.5720    2.7713    0.0000 C   0  0  0  0  0  0  0  0  0  0  0  0
    2.7180    2.2822    0.0000 Cl  0  0  0  0  0  0  0  0  0  0  0  0
    3.1199   -4.7614    0.0000 C   0  0  0  0  0  0  0  0  0  0  0  0
    9.1232   -1.6663    0.0000 H   0  0  0  0  0  0  0  0  0  0  0  0
    7.5106    0.8634    0.0000 H   0  0  0  0  0  0  0  0  0  0  0  0
    9.5817    0.4048    0.0000 H   0  0  0  0  0  0  0  0  0  0  0  0
    8.1196   -2.2615    0.0000 H   0  0  0  0  0  0  0  0  0  0  0  0
    2.1742    1.4269    0.0000 H   0  0  0  0  0  0  0  0  0  0  0  0
   -0.1609   -1.9511    0.0000 H   0  0  0  0  0  0  0  0  0  0  0  0
    0.1556    1.0322    0.0000 H   0  0  0  0  0  0  0  0  0  0  0  0
   -1.6525   -1.7928    0.0000 H   0  0  0  0  0  0  0  0  0  0  0  0
   -1.3360    1.1904    0.0000 H   0  0  0  0  0  0  0  0  0  0  0  0
   -2.7118    2.4406    0.0000 H   0  0  0  0  0  0  0  0  0  0  0  0
   -5.6951    2.7571    0.0000 H   0  0  0  0  0  0  0  0  0  0  0  0
   -6.2432   -2.4101    0.0000 H   0  0  0  0  0  0  0  0  0  0  0  0
   -3.2600   -2.7266    0.0000 H   0  0  0  0  0  0  0  0  0  0  0  0
   -7.4462   -0.5539    0.0000 H   0  0  0  0  0  0  0  0  0  0  0  0
   -7.3026    1.8233    0.0000 H   0  0  0  0  0  0  0  0  0  0  0  0
   -8.7942    1.9816    0.0000 H   0  0  0  0  0  0  0  0  0  0  0  0
   -9.9963   -1.0163    0.0000 H   0  0  0  0  0  0  0  0  0  0  0  0
   -8.2478   -1.2018    0.0000 H   0  0  0  0  0  0  0  0  0  0  0  0
   -9.2689   -2.4933    0.0000 H   0  0  0  0  0  0  0  0  0  0  0  0
  -10.6441   -0.2147    0.0000 H   0  0  0  0  0  0  0  0  0  0  0  0
  -10.2858    2.1398    0.0000 H   0  0  0  0  0  0  0  0  0  0  0  0
  -11.9357    0.8064    0.0000 H   0  0  0  0  0  0  0  0  0  0  0  0
    7.5305    2.4881    0.0000 H   0  0  0  0  0  0  0  0  0  0  0  0
    7.1752    5.4670    0.0000 H   0  0  0  0  0  0  0  0  0  0  0  0
    4.4177    6.6487    0.0000 H   0  0  0  0  0  0  0  0  0  0  0  0
    2.0156    4.8516    0.0000 H   0  0  0  0  0  0  0  0  0  0  0  0
    3.7491   -6.1230    0.0000 H   0  0  0  0  0  0  0  0  0  0  0  0
    2.4906   -3.3997    0.0000 H   0  0  0  0  0  0  0  0  0  0  0  0
    1.7582   -5.3906    0.0000 H   0  0  0  0  0  0  0  0  0  0  0  0
  1  2  1  0
  1 35  1  0
  1 36  1  0
  1 37  1  0
  2  3  1  0
  2 26  1  0
  2 38  1  6
  3  4  2  0
  3  7  1  0
  4  5  1  0
  5  6  2  0
  6  7  1  0
  6 34  1  0
  7  8  1  0
  8  9  2  0
  8 12  1  0
  9 10  1  0
  9 25  1  0
 10 11  2  0
 10 39  1  0
 11 12  1  0
 11 13  1  0
 13 14  1  0
 13 40  1  0
 13 41  1  0
 14 15  1  0
 14 42  1  0
 14 43  1  0
 15 16  2  0
 15 20  1  0
 16 17  1  0
 16 44  1  0
 17 18  2  0
 17 45  1  0
 18 19  1  0
 18 21  1  0
 19 20  2  0
 19 46  1  0
 20 47  1  0
 21 22  1  0
 21 48  1  0
 21 49  1  0
 22 23  1  0
 22 24  1  0
 22 50  1  0
 23 51  1  0
 23 52  1  0
 23 53  1  0
 24 54  1  0
 24 55  1  0
 24 56  1  0
 25 26  2  0
 25 27  1  0
 27 28  2  0
 27 32  1  0
 28 29  1  0
 28 57  1  0
 29 30  2  0
 29 58  1  0
 30 31  1  0
 30 59  1  0
 31 32  2  0
 31 60  1  0
 32 33  1  0
 34 61  1  0
 34 62  1  0
 34 63  1  0
M  END
$$$$

     RDKit          2D

113118  0  0  1  0  0  0  0  0999 V2000
   10.1490   -1.7939    0.0000 C   0  0  0  0  0  0  0  0  0  0  0  0
    8.6524   -1.8944    0.0000 C   0  0  0  0  0  0  0  0  0  0  0  0
    7.1557   -1.9949    0.0000 C   0  0  0  0  0  0  0  0  0  0  0  0
    5.7837   -2.6012    0.0000 C   0  0  0  0  0  0  0  0  0  0  0  0
    4.5726   -1.7161    0.0000 C   0  0  0  0  0  0  0  0  0  0  0  0
    4.7336   -0.2248    0.0000 C   0  0  0  0  0  0  0  0  0  0  0  0
    3.5225    0.6602    0.0000 C   0  0  0  0  0  0  0  0  0  0  0  0
    3.6834    2.1516    0.0000 C   0  0  0  0  0  0  0  0  0  0  0  0
    5.0554    2.7579    0.0000 C   0  0  0  0  0  0  0  0  0  0  0  0
    6.2665    1.8728    0.0000 C   0  0  0  0  0  0  0  0  0  0  0  0
    6.1056    0.3815    0.0000 C   0  0  0  0  0  0  0  0  0  0  0  0
    7.3167   -0.5036    0.0000 C   0  0  0  0  0  0  0  0  0  0  0  0
    8.7574   -0.9210    0.0000 C   0  0  0  0  0  0  0  0  0  0  0  0
    9.4580   -2.2473    0.0000 O   0  0  0  0  0  0  0  0  0  0  0  0
    9.8393    0.1180    0.0000 O   0  0  0  0  0  0  0  0  0  0  0  0
   11.2800   -0.2995    0.0000 C   0  0  0  0  0  0  0  0  0  0  0  0
    5.2164    4.2492    0.0000 C   0  0  0  0  0  0  0  0  0  0  0  0
    6.5884    4.8555    0.0000 O   0  0  0  0  0  0  0  0  0  0  0  0
    4.0053    5.1343    0.0000 C   0  0  0  0  0  0  0  0  0  0  0  0
    2.6333    4.5280    0.0000 C   0  0  0  0  0  0  0  0  0  0  0  0
    2.4724    3.0366    0.0000 C   0  0  0  0  0  0  0  0  0  0  0  0
    1.0367    2.6021    0.0000 O   0  0  0  0  0  0  0  0  0  0  0  0
    1.4222    5.4130    0.0000 C   0  0  0  0  0  0  0  0  0  0  0  0
    1.5832    6.9044    0.0000 C   0  0  0  0  0  0  0  0  0  0  0  0
    2.9552    7.5107    0.0000 C   0  0  0  0  0  0  0  0  0  0  0  0
    4.1662    6.6256    0.0000 C   0  0  0  0  0  0  0  0  0  0  0  0
    0.0502    4.8067    0.0000 O   0  0  0  0  0  0  0  0  0  0  0  0
    2.1505    0.0539    0.0000 O   0  0  0  0  0  0  0  0  0  0  0  0
    3.1319   -1.2987    0.0000 O   0  0  0  0  0  0  0  0  0  0  0  0
    2.0500   -2.3377    0.0000 C   0  0  0  0  0  0  0  0  0  0  0  0
    1.2147   -1.0918    0.0000 C   0  0  0  0  0  0  0  0  0  0  0  0
   -0.2820   -1.1923    0.0000 C   0  0  0  0  0  0  0  0  0  0  0  0
   -0.9433   -2.5386    0.0000 C   0  0  0  0  0  0  0  0  0  0  0  0
   -0.1079   -3.7845    0.0000 C   0  0  0  0  0  0  0  0  0  0  0  0
    1.3887   -3.6840    0.0000 O   0  0  0  0  0  0  0  0  0  0  0  0
   -1.4799   -4.3908    0.0000 C   0  0  0  0  0  0  0  0  0  0  0  0
   -2.1543   -1.6536    0.0000 O   0  0  0  0  0  0  0  0  0  0  0  0
   -3.5263   -2.2599    0.0000 C   0  0  0  0  0  0  0  0  0  0  0  0
   -3.8852   -0.8034    0.0000 C   0  0  0  0  0  0  0  0  0  0  0  0
   -5.3259   -0.3860    0.0000 C   0  0  0  0  0  0  0  0  0  0  0  0
   -6.4078   -1.4250    0.0000 C   0  0  0  0  0  0  0  0  0  0  0  0
   -6.0490   -2.8814    0.0000 C   0  0  0  0  0  0  0  0  0  0  0  0
   -4.6082   -3.2989    0.0000 O   0  0  0  0  0  0  0  0  0  0  0  0
   -7.5456   -2.9819    0.0000 C   0  0  0  0  0  0  0  0  0  0  0  0
   -7.2431   -0.1791    0.0000 O   0  0  0  0  0  0  0  0  0  0  0  0
   -8.7398   -0.2796    0.0000 C   0  0  0  0  0  0  0  0  0  0  0  0
   -8.5788    1.2118    0.0000 C   0  0  0  0  0  0  0  0  0  0  0  0
   -9.7899    2.0968    0.0000 C   0  0  0  0  0  0  0  0  0  0  0  0
  -11.1619    1.4905    0.0000 C   0  0  0  0  0  0  0  0  0  0  0  0
  -12.2561    2.5166    0.0000 O   0  0  0  0  0  0  0  0  0  0  0  0
  -11.3229   -0.0008    0.0000 C   0  0  0  0  0  0  0  0  0  0  0  0
  -10.1118   -0.8858    0.0000 O   0  0  0  0  0  0  0  0  0  0  0  0
  -12.7636    0.4167    0.0000 C   0  0  0  0  0  0  0  0  0  0  0  0
   -4.6646    0.9604    0.0000 O   0  0  0  0  0  0  0  0  0  0  0  0
   -0.1210    0.2991    0.0000 N   0  0  0  0  0  0  0  0  0  0  0  0
   -1.3321    1.1841    0.0000 C   0  0  0  0  0  0  0  0  0  0  0  0
    1.2510    0.9054    0.0000 C   0  0  0  0  0  0  0  0  0  0  0  0
    7.5146   -3.4513    0.0000 O   0  0  0  0  0  0  0  0  0  0  0  0
   -0.7500   10.0020    0.0000 Cl  0  0  0  0  0  0  0  0  0  0  0  0
   10.2495   -3.2906    0.0000 H   0  0  0  0  0  0  0  0  0  0  0  0
   10.3419   -0.7176    0.0000 H   0  0  0  0  0  0  0  0  0  0  0  0
   11.6467   -1.8766    0.0000 H   0  0  0  0  0  0  0  0  0  0  0  0
    8.9345   -3.3676    0.0000 H   0  0  0  0  0  0  0  0  0  0  0  0
    8.7930   -1.1098    0.0000 H   0  0  0  0  0  0  0  0  0  0  0  0
    6.6190   -3.8471    0.0000 H   0  0  0  0  0  0  0  0  0  0  0  0
    4.7018   -3.6402    0.0000 H   0  0  0  0  0  0  0  0  0  0  0  0
    4.0804   -3.1331    0.0000 H   0  0  0  0  0  0  0  0  0  0  0  0
    7.6385    2.4791    0.0000 H   0  0  0  0  0  0  0  0  0  0  0  0
    7.9780    0.8428    0.0000 H   0  0  0  0  0  0  0  0  0  0  0  0
   11.6975    1.1413    0.0000 H   0  0  0  0  0  0  0  0  0  0  0  0
   11.4067   -1.7941    0.0000 H   0  0  0  0  0  0  0  0  0  0  0  0
   12.7208   -0.7169    0.0000 H   0  0  0  0  0  0  0  0  0  0  0  0
    0.3721    7.7894    0.0000 H   0  0  0  0  0  0  0  0  0  0  0  0
    3.1161    9.0020    0.0000 H   0  0  0  0  0  0  0  0  0  0  0  0
    5.5383    7.2319    0.0000 H   0  0  0  0  0  0  0  0  0  0  0  0
   -1.1608    5.6918    0.0000 H   0  0  0  0  0  0  0  0  0  0  0  0
    1.3371    1.3143    0.0000 H   0  0  0  0  0  0  0  0  0  0  0  0
    3.1442   -3.3637    0.0000 H   0  0  0  0  0  0  0  0  0  0  0  0
    1.0360    0.3975    0.0000 H   0  0  0  0  0  0  0  0  0  0  0  0
    2.7128   -1.0176    0.0000 H   0  0  0  0  0  0  0  0  0  0  0  0
   -1.7227   -0.7748    0.0000 H   0  0  0  0  0  0  0  0  0  0  0  0
   -2.0252   -3.5776    0.0000 H   0  0  0  0  0  0  0  0  0  0  0  0
    0.2509   -5.2410    0.0000 H   0  0  0  0  0  0  0  0  0  0  0  0
   -0.8736   -5.7628    0.0000 H   0  0  0  0  0  0  0  0  0  0  0  0
   -2.4002   -3.2063    0.0000 H   0  0  0  0  0  0  0  0  0  0  0  0
   -2.8519   -4.9971    0.0000 H   0  0  0  0  0  0  0  0  0  0  0  0
   -3.0173   -3.6709    0.0000 H   0  0  0  0  0  0  0  0  0  0  0  0
   -3.7242    0.6879    0.0000 H   0  0  0  0  0  0  0  0  0  0  0  0
   -2.3885   -0.7030    0.0000 H   0  0  0  0  0  0  0  0  0  0  0  0
   -6.4201    0.6401    0.0000 H   0  0  0  0  0  0  0  0  0  0  0  0
   -7.7798   -2.0313    0.0000 H   0  0  0  0  0  0  0  0  0  0  0  0
   -6.2099   -4.3727    0.0000 H   0  0  0  0  0  0  0  0  0  0  0  0
   -7.4451   -4.4785    0.0000 H   0  0  0  0  0  0  0  0  0  0  0  0
   -8.0052   -1.5540    0.0000 H   0  0  0  0  0  0  0  0  0  0  0  0
   -9.0422   -3.0824    0.0000 H   0  0  0  0  0  0  0  0  0  0  0  0
   -8.7440   -1.7795    0.0000 H   0  0  0  0  0  0  0  0  0  0  0  0
   -7.9175    2.5581    0.0000 H   0  0  0  0  0  0  0  0  0  0  0  0
   -7.0980    0.9731    0.0000 H   0  0  0  0  0  0  0  0  0  0  0  0
  -10.6252    3.3427    0.0000 H   0  0  0  0  0  0  0  0  0  0  0  0
   -8.7080    3.1358    0.0000 H   0  0  0  0  0  0  0  0  0  0  0  0
  -11.9842   -1.3472    0.0000 H   0  0  0  0  0  0  0  0  0  0  0  0
  -13.1811   -1.0241    0.0000 H   0  0  0  0  0  0  0  0  0  0  0  0
  -12.5249    1.8975    0.0000 H   0  0  0  0  0  0  0  0  0  0  0  0
  -14.2043    0.8341    0.0000 H   0  0  0  0  0  0  0  0  0  0  0  0
   -5.4999    2.2063    0.0000 H   0  0  0  0  0  0  0  0  0  0  0  0
   -0.4471    2.3952    0.0000 H   0  0  0  0  0  0  0  0  0  0  0  0
   -2.2171   -0.0270    0.0000 H   0  0  0  0  0  0  0  0  0  0  0  0
   -2.5432    2.0692    0.0000 H   0  0  0  0  0  0  0  0  0  0  0  0
    0.4820    2.1932    0.0000 H   0  0  0  0  0  0  0  0  0  0  0  0
    1.6855   -0.5303    0.0000 H   0  0  0  0  0  0  0  0  0  0  0  0
    2.6230    1.5117    0.0000 H   0  0  0  0  0  0  0  0  0  0  0  0
    8.8937   -4.0413    0.0000 H   0  0  0  0  0  0  0  0  0  0  0  0
    0.7500   10.0020    0.0000 H   0  0  0  0  0  0  0  0  0  0  0  0
  1  2  1  0
  1 60  1  0
  1 61  1  0
  1 62  1  0
  2 63  1  0
  2 64  1  0
  3  4  1  0
  3 12  1  0
  3 58  1  6
  3  2  1  0
  4  5  1  0
  4 65  1  0
  4 66  1  0
  5  6  1  0
  5 29  1  0
  5 67  1  1
  6  7  1  0
  6 11  2  0
  7  8  2  0
  7 28  1  0
  8  9  1  0
  8 21  1  0
  9 10  2  0
  9 17  1  0
 10 11  1  0
 10 68  1  0
 11 12  1  0
 12 13  1  0
 12 69  1  6
 13 14  2  0
 13 15  1  0
 15 16  1  0
 16 70  1  0
 16 71  1  0
 16 72  1  0
 17 18  2  0
 17 19  1  0
 19 20  2  0
 19 26  1  0
 20 21  1  0
 20 23  1  0
 21 22  2  0
 23 24  2  0
 23 27  1  0
 24 25  1  0
 24 73  1  0
 25 26  2  0
 25 74  1  0
 26 75  1  0
 27 76  1  0
 28 77  1  0
 30 31  1  0
 30 35  1  0
 30 78  1  1
 30 29  1  0
 31 32  1  0
 31 79  1  0
 31 80  1  0
 32 33  1  0
 32 81  1  6
 32 55  1  0
 33 34  1  0
 33 82  1  6
 33 37  1  0
 34 35  1  0
 34 36  1  0
 34 83  1  6
 36 84  1  0
 36 85  1  0
 36 86  1  0
 38 39  1  0
 38 43  1  0
 38 87  1  1
 38 37  1  0
 39 40  1  0
 39 88  1  0
 39 89  1  0
 40 41  1  0
 40 90  1  6
 40 54  1  0
 41 42  1  0
 41 91  1  6
 41 45  1  0
 42 43  1  0
 42 44  1  0
 42 92  1  6
 44 93  1  0
 44 94  1  0
 44 95  1  0
 46 47  1  0
 46 52  1  0
 46 96  1  1
 46 45  1  0
 47 48  1  0
 47 97  1  0
 47 98  1  0
 48 49  1  0
 48 99  1  0
 48100  1  0
 49 50  2  0
 49 51  1  0
 51 52  1  0
 51 53  1  0
 51101  1  6
 53102  1  0
 53103  1  0
 53104  1  0
 54105  1  0
 55 56  1  0
 55 57  1  0
 56106  1  0
 56107  1  0
 56108  1  0
 57109  1  0
 57110  1  0
 57111  1  0
 58112  1  0
 59113  1  0
M  END
$$$$

     RDKit          2D

 74 73  0  0  0  0  0  0  0  0999 V2000
   15.4778   -0.1358    0.0000 C   0  0  0  0  0  0  0  0  0  0  0  0
   13.9780   -0.1142    0.0000 C   0  0  0  0  0  0  0  0  0  0  0  0
   12.4781   -0.0927    0.0000 C   0  0  0  0  0  0  0  0  0  0  0  0
   10.9783   -0.0712    0.0000 C   0  0  0  0  0  0  0  0  0  0  0  0
    9.4785   -0.0497    0.0000 C   0  0  0  0  0  0  0  0  0  0  0  0
    7.9786   -0.0282    0.0000 C   0  0  0  0  0  0  0  0  0  0  0  0
    6.4788   -0.0067    0.0000 C   0  0  0  0  0  0  0  0  0  0  0  0
    4.9789    0.0148    0.0000 C   0  0  0  0  0  0  0  0  0  0  0  0
    3.4791    0.0363    0.0000 C   0  0  0  0  0  0  0  0  0  0  0  0
    1.9792    0.0578    0.0000 C   0  0  0  0  0  0  0  0  0  0  0  0
    0.4794    0.0794    0.0000 C   0  0  0  0  0  0  0  0  0  0  0  0
   -1.0205    0.1009    0.0000 C   0  0  0  0  0  0  0  0  0  0  0  0
   -2.5203    0.1224    0.0000 C   0  0  0  0  0  0  0  0  0  0  0  0
   -4.0202    0.1439    0.0000 C   0  0  0  0  0  0  0  0  0  0  0  0
   -5.5200    0.1654    0.0000 C   0  0  0  0  0  0  0  0  0  0  0  0
   -7.0199    0.1869    0.0000 C   0  0  0  0  0  0  0  0  0  0  0  0
   -8.5197    0.2084    0.0000 C   0  0  0  0  0  0  0  0  0  0  0  0
  -10.0195    0.2299    0.0000 C   0  0  0  0  0  0  0  0  0  0  0  0
  -11.5194    0.2514    0.0000 N   0  0  0  0  0  0  0  0  0  0  0  0
  -12.3836    1.4775    0.0000 C   0  0  0  0  0  0  0  0  0  0  0  0
  -13.8167    1.0345    0.0000 C   0  0  0  0  0  0  0  0  0  0  0  0
  -13.8382   -0.4654    0.0000 N   0  0  0  0  0  0  0  0  0  0  0  0
  -12.4184   -0.9493    0.0000 C   0  0  0  0  0  0  0  0  0  0  0  0
  -15.0642   -1.3296    0.0000 C   0  0  0  0  0  0  0  0  0  0  0  0
   -1.2990    4.6473    0.0000 F   0  0  0  0  0  0  0  0  0  0  0  0
    0.0000    5.3973    0.0000 P   0  0  0  0  0  0  0  0  0  0  0  0
   -0.0000    3.8973    0.0000 F   0  0  0  0  0  0  0  0  0  0  0  0
    1.2990    4.6473    0.0000 F   0  0  0  0  0  0  0  0  0  0  0  0
    0.0000    6.8973    0.0000 F   0  0  0  0  0  0  0  0  0  0  0  0
    1.2990    6.1473    0.0000 F   0  0  0  0  0  0  0  0  0  0  0  0
   -1.2990    6.1473    0.0000 F   0  0  0  0  0  0  0  0  0  0  0  0
   15.4993    1.3641    0.0000 H   0  0  0  0  0  0  0  0  0  0  0  0
   15.4563   -1.6356    0.0000 H   0  0  0  0  0  0  0  0  0  0  0  0
   16.9777   -0.1573    0.0000 H   0  0  0  0  0  0  0  0  0  0  0  0
   13.9565   -1.6141    0.0000 H   0  0  0  0  0  0  0  0  0  0  0  0
   13.9995    1.3856    0.0000 H   0  0  0  0  0  0  0  0  0  0  0  0
   12.4997    1.4071    0.0000 H   0  0  0  0  0  0  0  0  0  0  0  0
   12.4566   -1.5926    0.0000 H   0  0  0  0  0  0  0  0  0  0  0  0
   10.9568   -1.5711    0.0000 H   0  0  0  0  0  0  0  0  0  0  0  0
   10.9998    1.4286    0.0000 H   0  0  0  0  0  0  0  0  0  0  0  0
    9.5000    1.4501    0.0000 H   0  0  0  0  0  0  0  0  0  0  0  0
    9.4569   -1.5496    0.0000 H   0  0  0  0  0  0  0  0  0  0  0  0
    7.9571   -1.5280    0.0000 H   0  0  0  0  0  0  0  0  0  0  0  0
    8.0001    1.4716    0.0000 H   0  0  0  0  0  0  0  0  0  0  0  0
    6.5003    1.4932    0.0000 H   0  0  0  0  0  0  0  0  0  0  0  0
    6.4572   -1.5065    0.0000 H   0  0  0  0  0  0  0  0  0  0  0  0
    4.9574   -1.4850    0.0000 H   0  0  0  0  0  0  0  0  0  0  0  0
    5.0004    1.5147    0.0000 H   0  0  0  0  0  0  0  0  0  0  0  0
    3.5006    1.5362    0.0000 H   0  0  0  0  0  0  0  0  0  0  0  0
    3.4576   -1.4635    0.0000 H   0  0  0  0  0  0  0  0  0  0  0  0
    1.9577   -1.4420    0.0000 H   0  0  0  0  0  0  0  0  0  0  0  0
    2.0007    1.5577    0.0000 H   0  0  0  0  0  0  0  0  0  0  0  0
    0.5009    1.5792    0.0000 H   0  0  0  0  0  0  0  0  0  0  0  0
    0.4579   -1.4205    0.0000 H   0  0  0  0  0  0  0  0  0  0  0  0
   -1.0420   -1.3990    0.0000 H   0  0  0  0  0  0  0  0  0  0  0  0
   -0.9990    1.6007    0.0000 H   0  0  0  0  0  0  0  0  0  0  0  0
   -2.4988    1.6222    0.0000 H   0  0  0  0  0  0  0  0  0  0  0  0
   -2.5418   -1.3775    0.0000 H   0  0  0  0  0  0  0  0  0  0  0  0
   -4.0417   -1.3560    0.0000 H   0  0  0  0  0  0  0  0  0  0  0  0
   -3.9986    1.6437    0.0000 H   0  0  0  0  0  0  0  0  0  0  0  0
   -5.4985    1.6652    0.0000 H   0  0  0  0  0  0  0  0  0  0  0  0
   -5.5415   -1.3344    0.0000 H   0  0  0  0  0  0  0  0  0  0  0  0
   -7.0414   -1.3129    0.0000 H   0  0  0  0  0  0  0  0  0  0  0  0
   -6.9983    1.6868    0.0000 H   0  0  0  0  0  0  0  0  0  0  0  0
   -8.4982    1.7083    0.0000 H   0  0  0  0  0  0  0  0  0  0  0  0
   -8.5412   -1.2914    0.0000 H   0  0  0  0  0  0  0  0  0  0  0  0
  -10.0411   -1.2699    0.0000 H   0  0  0  0  0  0  0  0  0  0  0  0
   -9.9980    1.7298    0.0000 H   0  0  0  0  0  0  0  0  0  0  0  0
  -11.8996    2.8973    0.0000 H   0  0  0  0  0  0  0  0  0  0  0  0
  -15.0174    1.9335    0.0000 H   0  0  0  0  0  0  0  0  0  0  0  0
  -11.9754   -2.3824    0.0000 H   0  0  0  0  0  0  0  0  0  0  0  0
  -15.9284   -0.1035    0.0000 H   0  0  0  0  0  0  0  0  0  0  0  0
  -14.2000   -2.5556    0.0000 H   0  0  0  0  0  0  0  0  0  0  0  0
  -16.2903   -2.1937    0.0000 H   0  0  0  0  0  0  0  0  0  0  0  0
  1  2  1  0
  1 32  1  0
  1 33  1  0
  1 34  1  0
  2  3  1  0
  2 35  1  0
  2 36  1  0
  3  4  1  0
  3 37  1  0
  3 38  1  0
  4  5  1  0
  4 39  1  0
  4 40  1  0
  5  6  1  0
  5 41  1  0
  5 42  1  0
  6  7  1  0
  6 43  1  0
  6 44  1  0
  7  8  1  0
  7 45  1  0
  7 46  1  0
  8  9  1  0
  8 47  1  0
  8 48  1  0
  9 10  1  0
  9 49  1  0
  9 50  1  0
 10 11  1  0
 10 51  1  0
 10 52  1  0
 11 12  1  0
 11 53  1  0
 11 54  1  0
 12 13  1  0
 12 55  1  0
 12 56  1  0
 13 14  1  0
 13 57  1  0
 13 58  1  0
 14 15  1  0
 14 59  1  0
 14 60  1  0
 15 16  1  0
 15 61  1  0
 15 62  1  0
 16 17  1  0
 16 63  1  0
 16 64  1  0
 17 18  1  0
 17 65  1  0
 17 66  1  0
 18 19  1  0
 18 67  1  0
 18 68  1  0
 19 20  1  0
 19 23  1  0
 20 21  2  0
 20 69  1  0
 21 22  1  0
 21 70  1  0
 22 23  2  0
 22 24  1  0
 23 71  1  0
 24 72  1  0
 24 73  1  0
 24 74  1  0
 25 26  1  0
 26 27  1  0
 26 28  1  0
 26 29  1  0
 26 30  1  0
 26 31  1  0
M  CHG  2  22   1  26  -1
M  END
$$$$

     RDKit          2D

 78 79  0  0  0  0  0  0  0  0999 V2000
   -6.1233    1.0804    0.0000 C   0  0  0  0  0  0  0  0  0  0  0  0
   -4.7860    0.4012    0.0000 C   0  0  0  0  0  0  0  0  0  0  0  0
   -3.4486   -0.2781    0.0000 C   0  0  0  0  0  0  0  0  0  0  0  0
   -2.1916    0.5404    0.0000 C   0  0  0  0  0  0  0  0  0  0  0  0
   -2.2720    2.0383    0.0000 C   0  0  0  0  0  0  0  0  0  0  0  0
   -1.0151    2.8568    0.0000 C   0  0  0  0  0  0  0  0  0  0  0  0
   -1.0955    4.3546    0.0000 C   0  0  0  0  0  0  0  0  0  0  0  0
   -2.4328    5.0339    0.0000 C   0  0  0  0  0  0  0  0  0  0  0  0
   -3.6898    4.2154    0.0000 C   0  0  0  0  0  0  0  0  0  0  0  0
   -3.6094    2.7175    0.0000 C   0  0  0  0  0  0  0  0  0  0  0  0
   -0.8543   -0.1389    0.0000 C   0  0  0  0  0  0  0  0  0  0  0  0
   -0.7739   -1.6367    0.0000 C   0  0  0  0  0  0  0  0  0  0  0  0
    0.5635   -2.3160    0.0000 C   0  0  0  0  0  0  0  0  0  0  0  0
    1.8205   -1.4975    0.0000 C   0  0  0  0  0  0  0  0  0  0  0  0
    1.7401    0.0004    0.0000 C   0  0  0  0  0  0  0  0  0  0  0  0
    0.4027    0.6797    0.0000 C   0  0  0  0  0  0  0  0  0  0  0  0
    3.1579   -2.1768    0.0000 O   0  0  0  0  0  0  0  0  0  0  0  0
    4.4148   -1.3582    0.0000 C   0  0  0  0  0  0  0  0  0  0  0  0
    5.6718   -0.5397    0.0000 C   0  0  0  0  0  0  0  0  0  0  0  0
    6.9288    0.2789    0.0000 N   0  0  0  0  0  0  0  0  0  0  0  0
    6.8484    1.7767    0.0000 C   0  0  0  0  0  0  0  0  0  0  0  0
    8.2661   -0.4004    0.0000 C   0  0  0  0  0  0  0  0  0  0  0  0
   -3.3682   -1.7760    0.0000 C   0  0  0  0  0  0  0  0  0  0  0  0
   -4.6252   -2.5945    0.0000 C   0  0  0  0  0  0  0  0  0  0  0  0
   -4.5448   -4.0924    0.0000 C   0  0  0  0  0  0  0  0  0  0  0  0
   -3.2074   -4.7717    0.0000 C   0  0  0  0  0  0  0  0  0  0  0  0
   -1.9504   -3.9531    0.0000 C   0  0  0  0  0  0  0  0  0  0  0  0
   -2.0308   -2.4553    0.0000 C   0  0  0  0  0  0  0  0  0  0  0  0
   -1.4721    9.7020    0.0000 C   0  0  0  0  0  0  0  0  0  0  0  0
   -2.9669    9.5774    0.0000 C   0  0  0  0  0  0  0  0  0  0  0  0
   -3.8222   10.8096    0.0000 O   0  0  0  0  0  0  0  0  0  0  0  0
   -3.6063    8.2205    0.0000 O   0  0  0  0  0  0  0  0  0  0  0  0
    0.0228    9.8267    0.0000 C   0  0  0  0  0  0  0  0  0  0  0  0
    1.5176    9.9513    0.0000 C   0  0  0  0  0  0  0  0  0  0  0  0
    3.0124   10.0760    0.0000 C   0  0  0  0  0  0  0  0  0  0  0  0
    3.6518   11.4328    0.0000 O   0  0  0  0  0  0  0  0  0  0  0  0
    3.8677    8.8437    0.0000 O   0  0  0  0  0  0  0  0  0  0  0  0
   -0.1019   11.3215    0.0000 C   0  0  0  0  0  0  0  0  0  0  0  0
    1.0169   12.3207    0.0000 O   0  0  0  0  0  0  0  0  0  0  0  0
   -1.4588   11.9610    0.0000 O   0  0  0  0  0  0  0  0  0  0  0  0
    0.1474    8.3319    0.0000 O   0  0  0  0  0  0  0  0  0  0  0  0
   -6.8026   -0.2569    0.0000 H   0  0  0  0  0  0  0  0  0  0  0  0
   -5.7093    2.2227    0.0000 H   0  0  0  0  0  0  0  0  0  0  0  0
   -7.4607    1.7597    0.0000 H   0  0  0  0  0  0  0  0  0  0  0  0
   -5.4653   -0.9362    0.0000 H   0  0  0  0  0  0  0  0  0  0  0  0
   -4.4133    1.4292    0.0000 H   0  0  0  0  0  0  0  0  0  0  0  0
    0.3951    2.3456    0.0000 H   0  0  0  0  0  0  0  0  0  0  0  0
    0.1615    5.1732    0.0000 H   0  0  0  0  0  0  0  0  0  0  0  0
   -2.5132    6.5318    0.0000 H   0  0  0  0  0  0  0  0  0  0  0  0
   -5.0272    4.8947    0.0000 H   0  0  0  0  0  0  0  0  0  0  0  0
   -4.4465    2.4282    0.0000 H   0  0  0  0  0  0  0  0  0  0  0  0
   -1.3168   -2.2205    0.0000 H   0  0  0  0  0  0  0  0  0  0  0  0
    0.6439   -3.8139    0.0000 H   0  0  0  0  0  0  0  0  0  0  0  0
    2.9971    0.8189    0.0000 H   0  0  0  0  0  0  0  0  0  0  0  0
    0.5055    2.1761    0.0000 H   0  0  0  0  0  0  0  0  0  0  0  0
    5.2334   -2.6152    0.0000 H   0  0  0  0  0  0  0  0  0  0  0  0
    3.5963   -0.1012    0.0000 H   0  0  0  0  0  0  0  0  0  0  0  0
    4.8532    0.7173    0.0000 H   0  0  0  0  0  0  0  0  0  0  0  0
    6.4903   -1.7966    0.0000 H   0  0  0  0  0  0  0  0  0  0  0  0
    8.3462    1.8571    0.0000 H   0  0  0  0  0  0  0  0  0  0  0  0
    5.3505    1.6963    0.0000 H   0  0  0  0  0  0  0  0  0  0  0  0
    6.7680    3.2746    0.0000 H   0  0  0  0  0  0  0  0  0  0  0  0
    8.9454    0.9370    0.0000 H   0  0  0  0  0  0  0  0  0  0  0  0
    7.5868   -1.7378    0.0000 H   0  0  0  0  0  0  0  0  0  0  0  0
    9.6035   -1.0797    0.0000 H   0  0  0  0  0  0  0  0  0  0  0  0
   -5.9625   -1.9152    0.0000 H   0  0  0  0  0  0  0  0  0  0  0  0
   -5.8017   -4.9109    0.0000 H   0  0  0  0  0  0  0  0  0  0  0  0
   -3.1270   -6.2695    0.0000 H   0  0  0  0  0  0  0  0  0  0  0  0
   -0.6131   -4.6324    0.0000 H   0  0  0  0  0  0  0  0  0  0  0  0
   -0.6131   -1.9652    0.0000 H   0  0  0  0  0  0  0  0  0  0  0  0
   -1.9547   11.1223    0.0000 H   0  0  0  0  0  0  0  0  0  0  0  0
   -1.3474    8.2072    0.0000 H   0  0  0  0  0  0  0  0  0  0  0  0
   -5.1012    8.0959    0.0000 H   0  0  0  0  0  0  0  0  0  0  0  0
    1.5761   11.4502    0.0000 H   0  0  0  0  0  0  0  0  0  0  0  0
    1.8235    8.4829    0.0000 H   0  0  0  0  0  0  0  0  0  0  0  0
    5.3625    8.9684    0.0000 H   0  0  0  0  0  0  0  0  0  0  0  0
   -1.5834   13.4558    0.0000 H   0  0  0  0  0  0  0  0  0  0  0  0
    1.4162    7.5318    0.0000 H   0  0  0  0  0  0  0  0  0  0  0  0
  1  2  1  0
  1 42  1  0
  1 43  1  0
  1 44  1  0
  2  3  1  0
  2 45  1  0
  2 46  1  0
  3  4  2  0
  3 23  1  0
  4  5  1  0
  4 11  1  0
  5  6  2  0
  5 10  1  0
  6  7  1  0
  6 47  1  0
  7  8  2  0
  7 48  1  0
  8  9  1  0
  8 49  1  0
  9 10  2  0
  9 50  1  0
 10 51  1  0
 11 12  2  0
 11 16  1  0
 12 13  1  0
 12 52  1  0
 13 14  2  0
 13 53  1  0
 14 15  1  0
 14 17  1  0
 15 16  2  0
 15 54  1  0
 16 55  1  0
 17 18  1  0
 18 19  1  0
 18 56  1  0
 18 57  1  0
 19 20  1  0
 19 58  1  0
 19 59  1  0
 20 21  1  0
 20 22  1  0
 21 60  1  0
 21 61  1  0
 21 62  1  0
 22 63  1  0
 22 64  1  0
 22 65  1  0
 23 24  2  0
 23 28  1  0
 24 25  1  0
 24 66  1  0
 25 26  2  0
 25 67  1  0
 26 27  1  0
 26 68  1  0
 27 28  2  0
 27 69  1  0
 28 70  1  0
 29 30  1  0
 29 33  1  0
 29 71  1  0
 29 72  1  0
 30 31  2  0
 30 32  1  0
 32 73  1  0
 33 34  1  0
 33 38  1  0
 33 41  1  0
 34 35  1  0
 34 74  1  0
 34 75  1  0
 35 36  2  0
 35 37  1  0
 37 76  1  0
 38 39  2  0
 38 40  1  0
 40 77  1  0
 41 78  1  0
M  END
$$$$

     RDKit          2D

 60 65  0  0  0  0  0  0  0  0999 V2000
    2.0254    2.5742    0.0000 C   0  0  0  0  0  0  0  0  0  0  0  0
    2.7146    1.2419    0.0000 C   0  0  0  0  0  0  0  0  0  0  0  0
    2.7575   -0.2575    0.0000 C   0  0  0  0  0  0  0  0  0  0  0  0
    1.5298   -1.1193    0.0000 C   0  0  0  0  0  0  0  0  0  0  0  0
    1.9700   -2.5532    0.0000 C   0  0  0  0  0  0  0  0  0  0  0  0
    3.4698   -2.5777    0.0000 C   0  0  0  0  0  0  0  0  0  0  0  0
    3.9565   -1.1588    0.0000 N   0  0  0  0  0  0  0  0  0  0  0  0
    5.4088   -0.7834    0.0000 C   0  0  0  0  0  0  0  0  0  0  0  0
    6.2888   -1.9981    0.0000 C   0  0  0  0  0  0  0  0  0  0  0  0
    7.7808   -1.8433    0.0000 C   0  0  0  0  0  0  0  0  0  0  0  0
    8.3927   -0.4737    0.0000 C   0  0  0  0  0  0  0  0  0  0  0  0
    7.5127    0.7409    0.0000 C   0  0  0  0  0  0  0  0  0  0  0  0
    6.0207    0.5861    0.0000 C   0  0  0  0  0  0  0  0  0  0  0  0
    5.3315    1.9184    0.0000 C   0  0  0  0  0  0  0  0  0  0  0  0
    3.8601    2.2103    0.0000 O   0  0  0  0  0  0  0  0  0  0  0  0
    1.2624    0.8664    0.0000 C   0  0  0  0  0  0  0  0  0  0  0  0
   -0.1899    0.4910    0.0000 N   0  0  0  0  0  0  0  0  0  0  0  0
   -1.2412    1.5609    0.0000 C   0  0  0  0  0  0  0  0  0  0  0  0
   -2.6934    1.1855    0.0000 C   0  0  0  0  0  0  0  0  0  0  0  0
   -3.0944   -0.2599    0.0000 C   0  0  0  0  0  0  0  0  0  0  0  0
   -2.0431   -1.3299    0.0000 C   0  0  0  0  0  0  0  0  0  0  0  0
   -0.5909   -0.9544    0.0000 C   0  0  0  0  0  0  0  0  0  0  0  0
   -4.4482    0.3859    0.0000 N   0  0  0  0  0  0  0  0  0  0  0  0
   -5.7665   -0.3297    0.0000 C   0  0  0  0  0  0  0  0  0  0  0  0
   -6.1168   -1.7882    0.0000 C   0  0  0  0  0  0  0  0  0  0  0  0
   -7.5551   -2.2141    0.0000 C   0  0  0  0  0  0  0  0  0  0  0  0
   -8.6430   -1.1815    0.0000 C   0  0  0  0  0  0  0  0  0  0  0  0
   -8.2927    0.2770    0.0000 C   0  0  0  0  0  0  0  0  0  0  0  0
   -6.8545    0.7029    0.0000 C   0  0  0  0  0  0  0  0  0  0  0  0
   -6.2086    2.0568    0.0000 N   0  0  0  0  0  0  0  0  0  0  0  0
   -4.7215    1.8608    0.0000 C   0  0  0  0  0  0  0  0  0  0  0  0
   -3.6888    2.9488    0.0000 O   0  0  0  0  0  0  0  0  0  0  0  0
    1.2498    2.3901    0.0000 H   0  0  0  0  0  0  0  0  0  0  0  0
    3.3577    3.2634    0.0000 H   0  0  0  0  0  0  0  0  0  0  0  0
    1.3362    3.9065    0.0000 H   0  0  0  0  0  0  0  0  0  0  0  0
    0.3193   -1.0149    0.0000 H   0  0  0  0  0  0  0  0  0  0  0  0
    1.0687   -3.7523    0.0000 H   0  0  0  0  0  0  0  0  0  0  0  0
    4.3316   -3.8054    0.0000 H   0  0  0  0  0  0  0  0  0  0  0  0
    5.6769   -3.3676    0.0000 H   0  0  0  0  0  0  0  0  0  0  0  0
    8.6609   -3.0579    0.0000 H   0  0  0  0  0  0  0  0  0  0  0  0
    9.8847   -0.3189    0.0000 H   0  0  0  0  0  0  0  0  0  0  0  0
    8.1246    2.1105    0.0000 H   0  0  0  0  0  0  0  0  0  0  0  0
    6.7837    2.2939    0.0000 H   0  0  0  0  0  0  0  0  0  0  0  0
    5.2886    3.4178    0.0000 H   0  0  0  0  0  0  0  0  0  0  0  0
    1.0628    1.6382    0.0000 H   0  0  0  0  0  0  0  0  0  0  0  0
    1.4580   -0.6208    0.0000 H   0  0  0  0  0  0  0  0  0  0  0  0
   -1.8631    2.9259    0.0000 H   0  0  0  0  0  0  0  0  0  0  0  0
   -0.2472    2.6843    0.0000 H   0  0  0  0  0  0  0  0  0  0  0  0
   -4.1073    1.6864    0.0000 H   0  0  0  0  0  0  0  0  0  0  0  0
   -2.8110    2.6809    0.0000 H   0  0  0  0  0  0  0  0  0  0  0  0
   -3.9655   -1.4810    0.0000 H   0  0  0  0  0  0  0  0  0  0  0  0
   -1.4212   -2.6949    0.0000 H   0  0  0  0  0  0  0  0  0  0  0  0
   -3.2794   -2.1794    0.0000 H   0  0  0  0  0  0  0  0  0  0  0  0
    0.7514   -1.6240    0.0000 H   0  0  0  0  0  0  0  0  0  0  0  0
   -0.4733   -2.4498    0.0000 H   0  0  0  0  0  0  0  0  0  0  0  0
   -5.0288   -2.8208    0.0000 H   0  0  0  0  0  0  0  0  0  0  0  0
   -7.9053   -3.6726    0.0000 H   0  0  0  0  0  0  0  0  0  0  0  0
  -10.0813   -1.6074    0.0000 H   0  0  0  0  0  0  0  0  0  0  0  0
   -9.3807    1.3096    0.0000 H   0  0  0  0  0  0  0  0  0  0  0  0
   -6.9242    3.3750    0.0000 H   0  0  0  0  0  0  0  0  0  0  0  0
  2  1  1  6
  1 33  1  0
  1 34  1  0
  1 35  1  0
  2  3  1  0
  2 15  1  0
  2 16  1  0
  3  4  2  0
  3  7  1  0
  4  5  1  0
  4 36  1  0
  5  6  2  0
  5 37  1  0
  6  7  1  0
  6 38  1  0
  7  8  1  0
  8  9  2  0
  8 13  1  0
  9 10  1  0
  9 39  1  0
 10 11  2  0
 10 40  1  0
 11 12  1  0
 11 41  1  0
 12 13  2  0
 12 42  1  0
 13 14  1  0
 14 15  1  0
 14 43  1  0
 14 44  1  0
 16 17  1  0
 16 45  1  0
 16 46  1  0
 17 18  1  0
 17 22  1  0
 18 19  1  0
 18 47  1  0
 18 48  1  0
 19 20  1  0
 19 49  1  0
 19 50  1  0
 20 21  1  0
 20 23  1  0
 20 51  1  0
 21 22  1  0
 21 52  1  0
 21 53  1  0
 22 54  1  0
 22 55  1  0
 23 24  1  0
 23 31  1  0
 24 25  2  0
 24 29  1  0
 25 26  1  0
 25 56  1  0
 26 27  2  0
 26 57  1  0
 27 28  1  0
 27 58  1  0
 28 29  2  0
 28 59  1  0
 29 30  1  0
 30 31  1  0
 30 60  1  0
 31 32  2  0
M  END
$$$$

     RDKit          2D

 61 65  0  0  0  0  0  0  0  0999 V2000
    8.7700    1.6327    0.0000 C   0  0  0  0  0  0  0  0  0  0  0  0
    8.8181    0.1335    0.0000 C   0  0  0  0  0  0  0  0  0  0  0  0
    7.5437   -0.6577    0.0000 C   0  0  0  0  0  0  0  0  0  0  0  0
    6.2213    0.0503    0.0000 N   0  0  0  0  0  0  0  0  0  0  0  0
    6.1733    1.5495    0.0000 C   0  0  0  0  0  0  0  0  0  0  0  0
    7.4476    2.3407    0.0000 C   0  0  0  0  0  0  0  0  0  0  0  0
    4.9470   -0.7410    0.0000 C   0  0  0  0  0  0  0  0  0  0  0  0
    3.6726   -1.5322    0.0000 C   0  0  0  0  0  0  0  0  0  0  0  0
    2.3983   -2.3234    0.0000 O   0  0  0  0  0  0  0  0  0  0  0  0
    1.0759   -1.6154    0.0000 C   0  0  0  0  0  0  0  0  0  0  0  0
    1.0278   -0.1162    0.0000 C   0  0  0  0  0  0  0  0  0  0  0  0
   -0.2946    0.5918    0.0000 C   0  0  0  0  0  0  0  0  0  0  0  0
   -1.5689   -0.1994    0.0000 C   0  0  0  0  0  0  0  0  0  0  0  0
   -1.5208   -1.6987    0.0000 C   0  0  0  0  0  0  0  0  0  0  0  0
   -0.1984   -2.4067    0.0000 C   0  0  0  0  0  0  0  0  0  0  0  0
   -2.8913    0.5085    0.0000 C   0  0  0  0  0  0  0  0  0  0  0  0
   -2.7563    2.0025    0.0000 O   0  0  0  0  0  0  0  0  0  0  0  0
   -4.1656   -0.2827    0.0000 C   0  0  0  0  0  0  0  0  0  0  0  0
   -5.5548    0.2832    0.0000 C   0  0  0  0  0  0  0  0  0  0  0  0
   -6.5223   -0.8631    0.0000 S   0  0  0  0  0  0  0  0  0  0  0  0
   -5.7310   -2.1374    0.0000 C   0  0  0  0  0  0  0  0  0  0  0  0
   -4.2746   -1.7787    0.0000 C   0  0  0  0  0  0  0  0  0  0  0  0
   -3.2357   -2.8607    0.0000 C   0  0  0  0  0  0  0  0  0  0  0  0
   -3.6532   -4.3014    0.0000 C   0  0  0  0  0  0  0  0  0  0  0  0
   -5.1097   -4.6601    0.0000 C   0  0  0  0  0  0  0  0  0  0  0  0
   -6.1486   -3.5782    0.0000 C   0  0  0  0  0  0  0  0  0  0  0  0
   -5.5273   -6.1008    0.0000 O   0  0  0  0  0  0  0  0  0  0  0  0
   -5.9135    1.7397    0.0000 C   0  0  0  0  0  0  0  0  0  0  0  0
   -4.8315    2.7786    0.0000 C   0  0  0  0  0  0  0  0  0  0  0  0
   -5.1903    4.2350    0.0000 C   0  0  0  0  0  0  0  0  0  0  0  0
   -6.6310    4.6526    0.0000 C   0  0  0  0  0  0  0  0  0  0  0  0
   -7.7129    3.6137    0.0000 C   0  0  0  0  0  0  0  0  0  0  0  0
   -7.3542    2.1573    0.0000 C   0  0  0  0  0  0  0  0  0  0  0  0
   -6.9897    6.1091    0.0000 O   0  0  0  0  0  0  0  0  0  0  0  0
    9.2376    3.0580    0.0000 H   0  0  0  0  0  0  0  0  0  0  0  0
   10.2548    1.4197    0.0000 H   0  0  0  0  0  0  0  0  0  0  0  0
   10.2862    0.4412    0.0000 H   0  0  0  0  0  0  0  0  0  0  0  0
    9.3760   -1.2589    0.0000 H   0  0  0  0  0  0  0  0  0  0  0  0
    8.5442   -1.7753    0.0000 H   0  0  0  0  0  0  0  0  0  0  0  0
    6.7675   -1.9413    0.0000 H   0  0  0  0  0  0  0  0  0  0  0  0
    4.6786    1.4231    0.0000 H   0  0  0  0  0  0  0  0  0  0  0  0
    5.6153    2.9419    0.0000 H   0  0  0  0  0  0  0  0  0  0  0  0
    6.4471    3.4583    0.0000 H   0  0  0  0  0  0  0  0  0  0  0  0
    8.3745    3.5201    0.0000 H   0  0  0  0  0  0  0  0  0  0  0  0
    4.0063    0.4274    0.0000 H   0  0  0  0  0  0  0  0  0  0  0  0
    5.5770   -2.1022    0.0000 H   0  0  0  0  0  0  0  0  0  0  0  0
    4.4639   -2.8065    0.0000 H   0  0  0  0  0  0  0  0  0  0  0  0
    2.8814   -0.2579    0.0000 H   0  0  0  0  0  0  0  0  0  0  0  0
    2.3022    0.6750    0.0000 H   0  0  0  0  0  0  0  0  0  0  0  0
   -0.3426    2.0910    0.0000 H   0  0  0  0  0  0  0  0  0  0  0  0
   -2.0762   -2.2706    0.0000 H   0  0  0  0  0  0  0  0  0  0  0  0
   -0.1504   -3.9059    0.0000 H   0  0  0  0  0  0  0  0  0  0  0  0
   -2.3756   -2.6489    0.0000 H   0  0  0  0  0  0  0  0  0  0  0  0
   -2.6144   -5.3834    0.0000 H   0  0  0  0  0  0  0  0  0  0  0  0
   -7.6051   -3.9369    0.0000 H   0  0  0  0  0  0  0  0  0  0  0  0
   -4.4884   -7.1828    0.0000 H   0  0  0  0  0  0  0  0  0  0  0  0
   -3.3507    2.5397    0.0000 H   0  0  0  0  0  0  0  0  0  0  0  0
   -4.1083    5.2739    0.0000 H   0  0  0  0  0  0  0  0  0  0  0  0
   -9.1536    4.0313    0.0000 H   0  0  0  0  0  0  0  0  0  0  0  0
   -8.4362    1.1184    0.0000 H   0  0  0  0  0  0  0  0  0  0  0  0
   -8.4304    6.5267    0.0000 H   0  0  0  0  0  0  0  0  0  0  0  0
  1  2  1  0
  1  6  1  0
  1 35  1  0
  1 36  1  0
  2  3  1  0
  2 37  1  0
  2 38  1  0
  3  4  1  0
  3 39  1  0
  3 40  1  0
  4  5  1  0
  4  7  1  0
  5  6  1  0
  5 41  1  0
  5 42  1  0
  6 43  1  0
  6 44  1  0
  7  8  1  0
  7 45  1  0
  7 46  1  0
  8  9  1  0
  8 47  1  0
  8 48  1  0
  9 10  1  0
 10 11  2  0
 10 15  1  0
 11 12  1  0
 11 49  1  0
 12 13  2  0
 12 50  1  0
 13 14  1  0
 13 16  1  0
 14 15  2  0
 14 51  1  0
 15 52  1  0
 16 17  2  0
 16 18  1  0
 18 19  2  0
 18 22  1  0
 19 20  1  0
 19 28  1  0
 20 21  1  0
 21 22  2  0
 21 26  1  0
 22 23  1  0
 23 24  2  0
 23 53  1  0
 24 25  1  0
 24 54  1  0
 25 26  2  0
 25 27  1  0
 26 55  1  0
 27 56  1  0
 28 29  2  0
 28 33  1  0
 29 30  1  0
 29 57  1  0
 30 31  2  0
 30 58  1  0
 31 32  1  0
 31 34  1  0
 32 33  2  0
 32 59  1  0
 33 60  1  0
 34 61  1  0
M  END
$$$$

     RDKit          2D

 45 47  0  0  0  0  0  0  0  0999 V2000
   -0.7842   -3.8876    0.0000 C   0  0  0  0  0  0  0  0  0  0  0  0
   -0.7296   -2.3886    0.0000 C   0  0  0  0  0  0  0  0  0  0  0  0
   -0.6751   -0.8896    0.0000 N   0  0  0  0  0  0  0  0  0  0  0  0
   -1.9460   -0.0928    0.0000 C   0  0  0  0  0  0  0  0  0  0  0  0
   -3.2714   -0.7950    0.0000 C   0  0  0  0  0  0  0  0  0  0  0  0
   -4.5423    0.0017    0.0000 C   0  0  0  0  0  0  0  0  0  0  0  0
   -4.4877    1.5007    0.0000 C   0  0  0  0  0  0  0  0  0  0  0  0
   -3.1623    2.2030    0.0000 C   0  0  0  0  0  0  0  0  0  0  0  0
   -1.8914    1.4062    0.0000 C   0  0  0  0  0  0  0  0  0  0  0  0
   -0.5659    2.1085    0.0000 C   0  0  0  0  0  0  0  0  0  0  0  0
   -0.5113    3.6075    0.0000 C   0  0  0  0  0  0  0  0  0  0  0  0
    0.8141    4.3097    0.0000 C   0  0  0  0  0  0  0  0  0  0  0  0
    2.0850    3.5129    0.0000 C   0  0  0  0  0  0  0  0  0  0  0  0
    2.0305    2.0139    0.0000 C   0  0  0  0  0  0  0  0  0  0  0  0
    0.7050    1.3117    0.0000 C   0  0  0  0  0  0  0  0  0  0  0  0
    0.6504   -0.1873    0.0000 C   0  0  0  0  0  0  0  0  0  0  0  0
    1.9213   -0.9841    0.0000 C   0  0  0  0  0  0  0  0  0  0  0  0
    1.8667   -2.4831    0.0000 C   0  0  0  0  0  0  0  0  0  0  0  0
    3.1376   -3.2799    0.0000 C   0  0  0  0  0  0  0  0  0  0  0  0
    4.4631   -2.5776    0.0000 C   0  0  0  0  0  0  0  0  0  0  0  0
    4.5176   -1.0786    0.0000 C   0  0  0  0  0  0  0  0  0  0  0  0
    3.2468   -0.2819    0.0000 C   0  0  0  0  0  0  0  0  0  0  0  0
    3.4105    4.2152    0.0000 N   0  0  0  0  0  0  0  0  0  0  0  0
   -5.8678   -0.7005    0.0000 N   0  0  0  0  0  0  0  0  0  0  0  0
    0.0000    6.8087    0.0000 Br  0  0  0  0  0  0  0  0  0  0  0  0
   -2.2832   -3.8330    0.0000 H   0  0  0  0  0  0  0  0  0  0  0  0
    0.4155   -4.0795    0.0000 H   0  0  0  0  0  0  0  0  0  0  0  0
   -0.8388   -5.3866    0.0000 H   0  0  0  0  0  0  0  0  0  0  0  0
   -2.2286   -2.3340    0.0000 H   0  0  0  0  0  0  0  0  0  0  0  0
    0.3501   -2.5613    0.0000 H   0  0  0  0  0  0  0  0  0  0  0  0
   -3.3260   -2.2940    0.0000 H   0  0  0  0  0  0  0  0  0  0  0  0
   -5.7586    2.2975    0.0000 H   0  0  0  0  0  0  0  0  0  0  0  0
   -3.1077    3.7020    0.0000 H   0  0  0  0  0  0  0  0  0  0  0  0
   -1.7822    4.4042    0.0000 H   0  0  0  0  0  0  0  0  0  0  0  0
    0.8687    5.8087    0.0000 H   0  0  0  0  0  0  0  0  0  0  0  0
    2.9218    1.5967    0.0000 H   0  0  0  0  0  0  0  0  0  0  0  0
    1.2076   -3.0748    0.0000 H   0  0  0  0  0  0  0  0  0  0  0  0
    3.0830   -4.7789    0.0000 H   0  0  0  0  0  0  0  0  0  0  0  0
    5.7340   -3.3744    0.0000 H   0  0  0  0  0  0  0  0  0  0  0  0
    5.8431   -0.3764    0.0000 H   0  0  0  0  0  0  0  0  0  0  0  0
    3.4022    0.6899    0.0000 H   0  0  0  0  0  0  0  0  0  0  0  0
    4.6814    3.4184    0.0000 H   0  0  0  0  0  0  0  0  0  0  0  0
    3.4651    5.7142    0.0000 H   0  0  0  0  0  0  0  0  0  0  0  0
   -7.1387    0.0963    0.0000 H   0  0  0  0  0  0  0  0  0  0  0  0
   -5.9224   -2.1995    0.0000 H   0  0  0  0  0  0  0  0  0  0  0  0
  1  2  1  0
  1 26  1  0
  1 27  1  0
  1 28  1  0
  2  3  1  0
  2 29  1  0
  2 30  1  0
  3  4  2  0
  3 16  1  0
  4  5  1  0
  4  9  1  0
  5  6  2  0
  5 31  1  0
  6  7  1  0
  6 24  1  0
  7  8  2  0
  7 32  1  0
  8  9  1  0
  8 33  1  0
  9 10  2  0
 10 11  1  0
 10 15  1  0
 11 12  2  0
 11 34  1  0
 12 13  1  0
 12 35  1  0
 13 14  2  0
 13 23  1  0
 14 15  1  0
 14 36  1  0
 15 16  2  0
 16 17  1  0
 17 18  2  0
 17 22  1  0
 18 19  1  0
 18 37  1  0
 19 20  2  0
 19 38  1  0
 20 21  1  0
 20 39  1  0
 21 22  2  0
 21 40  1  0
 22 41  1  0
 23 42  1  0
 23 43  1  0
 24 44  1  0
 24 45  1  0
M  CHG  2   3   1  25  -1
M  END
$$$$

     RDKit          2D

 57 59  0  0  0  0  0  0  0  0999 V2000
   -8.8771   -0.9073    0.0000 C   0  0  0  0  0  0  0  0  0  0  0  0
   -7.4665   -0.3972    0.0000 C   0  0  0  0  0  0  0  0  0  0  0  0
   -6.0559    0.1130    0.0000 N   0  0  0  0  0  0  0  0  0  0  0  0
   -5.7924    1.5897    0.0000 C   0  0  0  0  0  0  0  0  0  0  0  0
   -5.5290    3.0663    0.0000 C   0  0  0  0  0  0  0  0  0  0  0  0
   -4.9088   -0.8535    0.0000 C   0  0  0  0  0  0  0  0  0  0  0  0
   -3.7617   -1.8200    0.0000 C   0  0  0  0  0  0  0  0  0  0  0  0
   -2.6146   -2.7866    0.0000 O   0  0  0  0  0  0  0  0  0  0  0  0
   -1.2040   -2.2764    0.0000 C   0  0  0  0  0  0  0  0  0  0  0  0
   -0.9406   -0.7997    0.0000 C   0  0  0  0  0  0  0  0  0  0  0  0
    0.4700   -0.2896    0.0000 C   0  0  0  0  0  0  0  0  0  0  0  0
    1.6171   -1.2561    0.0000 C   0  0  0  0  0  0  0  0  0  0  0  0
    1.3536   -2.7328    0.0000 C   0  0  0  0  0  0  0  0  0  0  0  0
   -0.0569   -3.2429    0.0000 C   0  0  0  0  0  0  0  0  0  0  0  0
    3.0277   -0.7459    0.0000 C   0  0  0  0  0  0  0  0  0  0  0  0
    4.1748   -1.7125    0.0000 C   0  0  0  0  0  0  0  0  0  0  0  0
    5.5854   -1.2023    0.0000 C   0  0  0  0  0  0  0  0  0  0  0  0
    5.8489    0.2744    0.0000 C   0  0  0  0  0  0  0  0  0  0  0  0
    7.2594    0.7845    0.0000 C   0  0  0  0  0  0  0  0  0  0  0  0
    8.4065   -0.1820    0.0000 C   0  0  0  0  0  0  0  0  0  0  0  0
    8.1431   -1.6587    0.0000 C   0  0  0  0  0  0  0  0  0  0  0  0
    6.7325   -2.1688    0.0000 C   0  0  0  0  0  0  0  0  0  0  0  0
    3.9113   -3.1891    0.0000 Cl  0  0  0  0  0  0  0  0  0  0  0  0
    3.2912    0.7307    0.0000 C   0  0  0  0  0  0  0  0  0  0  0  0
    4.7018    1.2409    0.0000 C   0  0  0  0  0  0  0  0  0  0  0  0
    4.9652    2.7176    0.0000 C   0  0  0  0  0  0  0  0  0  0  0  0
    3.8181    3.6841    0.0000 C   0  0  0  0  0  0  0  0  0  0  0  0
    2.4076    3.1739    0.0000 C   0  0  0  0  0  0  0  0  0  0  0  0
    2.1441    1.6973    0.0000 C   0  0  0  0  0  0  0  0  0  0  0  0
   -8.3669   -2.3179    0.0000 H   0  0  0  0  0  0  0  0  0  0  0  0
   -9.3872    0.5033    0.0000 H   0  0  0  0  0  0  0  0  0  0  0  0
  -10.2877   -1.4175    0.0000 H   0  0  0  0  0  0  0  0  0  0  0  0
   -7.9767    1.0134    0.0000 H   0  0  0  0  0  0  0  0  0  0  0  0
   -6.9563   -1.8077    0.0000 H   0  0  0  0  0  0  0  0  0  0  0  0
   -7.2691    1.8532    0.0000 H   0  0  0  0  0  0  0  0  0  0  0  0
   -4.3158    1.3262    0.0000 H   0  0  0  0  0  0  0  0  0  0  0  0
   -4.0523    2.8029    0.0000 H   0  0  0  0  0  0  0  0  0  0  0  0
   -7.0056    3.3298    0.0000 H   0  0  0  0  0  0  0  0  0  0  0  0
   -5.2655    4.5430    0.0000 H   0  0  0  0  0  0  0  0  0  0  0  0
   -5.8753   -2.0006    0.0000 H   0  0  0  0  0  0  0  0  0  0  0  0
   -3.9423    0.2936    0.0000 H   0  0  0  0  0  0  0  0  0  0  0  0
   -4.7282   -2.9671    0.0000 H   0  0  0  0  0  0  0  0  0  0  0  0
   -2.7952   -0.6729    0.0000 H   0  0  0  0  0  0  0  0  0  0  0  0
   -2.0877    0.1668    0.0000 H   0  0  0  0  0  0  0  0  0  0  0  0
    0.5515    1.2082    0.0000 H   0  0  0  0  0  0  0  0  0  0  0  0
    2.5007   -3.6993    0.0000 H   0  0  0  0  0  0  0  0  0  0  0  0
   -0.3204   -4.7196    0.0000 H   0  0  0  0  0  0  0  0  0  0  0  0
    5.3817    0.9203    0.0000 H   0  0  0  0  0  0  0  0  0  0  0  0
    7.5229    2.2612    0.0000 H   0  0  0  0  0  0  0  0  0  0  0  0
    9.8171    0.3282    0.0000 H   0  0  0  0  0  0  0  0  0  0  0  0
    9.2902   -2.6252    0.0000 H   0  0  0  0  0  0  0  0  0  0  0  0
    6.4690   -3.6455    0.0000 H   0  0  0  0  0  0  0  0  0  0  0  0
    6.0486    0.5807    0.0000 H   0  0  0  0  0  0  0  0  0  0  0  0
    6.3758    3.2277    0.0000 H   0  0  0  0  0  0  0  0  0  0  0  0
    4.0816    5.1608    0.0000 H   0  0  0  0  0  0  0  0  0  0  0  0
    1.2605    4.1405    0.0000 H   0  0  0  0  0  0  0  0  0  0  0  0
    0.6818    1.3629    0.0000 H   0  0  0  0  0  0  0  0  0  0  0  0
  1  2  1  0
  1 30  1  0
  1 31  1  0
  1 32  1  0
  2  3  1  0
  2 33  1  0
  2 34  1  0
  3  4  1  0
  3  6  1  0
  4  5  1  0
  4 35  1  0
  4 36  1  0
  5 37  1  0
  5 38  1  0
  5 39  1  0
  6  7  1  0
  6 40  1  0
  6 41  1  0
  7  8  1  0
  7 42  1  0
  7 43  1  0
  8  9  1  0
  9 10  2  0
  9 14  1  0
 10 11  1  0
 10 44  1  0
 11 12  2  0
 11 45  1  0
 12 13  1  0
 12 15  1  0
 13 14  2  0
 13 46  1  0
 14 47  1  0
 15 16  2  0
 15 24  1  0
 16 17  1  0
 16 23  1  0
 17 18  2  0
 17 22  1  0
 18 19  1  0
 18 48  1  0
 19 20  2  0
 19 49  1  0
 20 21  1  0
 20 50  1  0
 21 22  2  0
 21 51  1  0
 22 52  1  0
 24 25  2  0
 24 29  1  0
 25 26  1  0
 25 53  1  0
 26 27  2  0
 26 54  1  0
 27 28  1  0
 27 55  1  0
 28 29  2  0
 28 56  1  0
 29 57  1  0
M  END
$$$$

     RDKit          2D

 30 30  0  0  0  0  0  0  0  0999 V2000
   -3.8971   -0.3300    0.0000 C   0  0  0  0  0  0  0  0  0  0  0  0
   -3.8971    1.1700    0.0000 C   0  0  0  0  0  0  0  0  0  0  0  0
   -2.5981    1.9200    0.0000 C   0  0  0  0  0  0  0  0  0  0  0  0
   -1.2990    1.1700    0.0000 C   0  0  0  0  0  0  0  0  0  0  0  0
   -1.2990   -0.3300    0.0000 C   0  0  0  0  0  0  0  0  0  0  0  0
   -2.5981   -1.0800    0.0000 C   0  0  0  0  0  0  0  0  0  0  0  0
    0.0000   -1.0800    0.0000 C   0  0  0  0  0  0  0  0  0  0  0  0
    1.2990   -0.3300    0.0000 C   0  0  0  0  0  0  0  0  0  0  0  0
    2.5981   -1.0800    0.0000 C   0  0  0  0  0  0  0  0  0  0  0  0
    3.8971   -0.3300    0.0000 C   0  0  0  0  0  0  0  0  0  0  0  0
    3.8971    1.1700    0.0000 C   0  0  0  0  0  0  0  0  0  0  0  0
    2.5981    1.9200    0.0000 C   0  0  0  0  0  0  0  0  0  0  0  0
    1.2990    1.1700    0.0000 C   0  0  0  0  0  0  0  0  0  0  0  0
   -0.0000    1.9200    0.0000 N   0  0  0  0  0  0  0  0  0  0  0  0
    0.0000   -2.5800    0.0000 N   0  0  0  0  0  0  0  0  0  0  0  0
   -0.0000    4.4200    0.0000 O   0  0  0  0  0  0  0  0  0  0  0  0
   -0.7500    6.1700    0.0000 Cl  0  0  0  0  0  0  0  0  0  0  0  0
   -5.1962   -1.0800    0.0000 H   0  0  0  0  0  0  0  0  0  0  0  0
   -5.1962    1.9200    0.0000 H   0  0  0  0  0  0  0  0  0  0  0  0
   -2.5981    3.4200    0.0000 H   0  0  0  0  0  0  0  0  0  0  0  0
   -2.5981   -2.5800    0.0000 H   0  0  0  0  0  0  0  0  0  0  0  0
    2.5981   -2.5800    0.0000 H   0  0  0  0  0  0  0  0  0  0  0  0
    5.1962   -1.0800    0.0000 H   0  0  0  0  0  0  0  0  0  0  0  0
    5.1962    1.9200    0.0000 H   0  0  0  0  0  0  0  0  0  0  0  0
    2.5981    3.4200    0.0000 H   0  0  0  0  0  0  0  0  0  0  0  0
    1.2990   -3.3300    0.0000 H   0  0  0  0  0  0  0  0  0  0  0  0
   -1.2990   -3.3300    0.0000 H   0  0  0  0  0  0  0  0  0  0  0  0
    1.2990    5.1700    0.0000 H   0  0  0  0  0  0  0  0  0  0  0  0
   -1.2990    5.1700    0.0000 H   0  0  0  0  0  0  0  0  0  0  0  0
    0.7500    6.1700    0.0000 H   0  0  0  0  0  0  0  0  0  0  0  0
  1  2  2  0
  1  6  1  0
  1 18  1  0
  2  3  1  0
  2 19  1  0
  3  4  2  0
  3 20  1  0
  4  5  1  0
  4 14  1  0
  5  6  2  0
  5  7  1  0
  6 21  1  0
  7  8  2  0
  7 15  1  0
  8  9  1  0
  8 13  1  0
  9 10  2  0
  9 22  1  0
 10 11  1  0
 10 23  1  0
 11 12  2  0
 11 24  1  0
 12 13  1  0
 12 25  1  0
 13 14  2  0
 15 26  1  0
 15 27  1  0
 16 28  1  0
 16 29  1  0
 17 30  1  0
M  END
$$$$

     RDKit          2D

 56 55  0  0  0  0  0  0  0  0999 V2000
   10.9695   -0.1717    0.0000 C   0  0  0  0  0  0  0  0  0  0  0  0
    9.4700   -0.1321    0.0000 C   0  0  0  0  0  0  0  0  0  0  0  0
    7.9705   -0.0925    0.0000 C   0  0  0  0  0  0  0  0  0  0  0  0
    6.4710   -0.0529    0.0000 C   0  0  0  0  0  0  0  0  0  0  0  0
    4.9716   -0.0133    0.0000 C   0  0  0  0  0  0  0  0  0  0  0  0
    3.4721    0.0262    0.0000 C   0  0  0  0  0  0  0  0  0  0  0  0
    1.9726    0.0658    0.0000 C   0  0  0  0  0  0  0  0  0  0  0  0
    0.4731    0.1054    0.0000 C   0  0  0  0  0  0  0  0  0  0  0  0
   -1.0264    0.1450    0.0000 C   0  0  0  0  0  0  0  0  0  0  0  0
   -2.5258    0.1846    0.0000 C   0  0  0  0  0  0  0  0  0  0  0  0
   -4.0253    0.2242    0.0000 C   0  0  0  0  0  0  0  0  0  0  0  0
   -5.5248    0.2638    0.0000 C   0  0  0  0  0  0  0  0  0  0  0  0
   -7.0243    0.3034    0.0000 N   0  0  0  0  0  0  0  0  0  0  0  0
   -7.8736    1.5398    0.0000 C   0  0  0  0  0  0  0  0  0  0  0  0
   -9.3119    1.1141    0.0000 C   0  0  0  0  0  0  0  0  0  0  0  0
   -9.3515   -0.3854    0.0000 N   0  0  0  0  0  0  0  0  0  0  0  0
   -7.9377   -0.8864    0.0000 C   0  0  0  0  0  0  0  0  0  0  0  0
  -10.5879   -1.2347    0.0000 C   0  0  0  0  0  0  0  0  0  0  0  0
   -1.2990    4.7036    0.0000 F   0  0  0  0  0  0  0  0  0  0  0  0
    0.0000    5.4536    0.0000 P   0  0  0  0  0  0  0  0  0  0  0  0
   -0.0000    3.9536    0.0000 F   0  0  0  0  0  0  0  0  0  0  0  0
    1.2990    4.7036    0.0000 F   0  0  0  0  0  0  0  0  0  0  0  0
    0.0000    6.9536    0.0000 F   0  0  0  0  0  0  0  0  0  0  0  0
    1.2990    6.2036    0.0000 F   0  0  0  0  0  0  0  0  0  0  0  0
   -1.2990    6.2036    0.0000 F   0  0  0  0  0  0  0  0  0  0  0  0
   11.0091    1.3278    0.0000 H   0  0  0  0  0  0  0  0  0  0  0  0
   10.9299   -1.6712    0.0000 H   0  0  0  0  0  0  0  0  0  0  0  0
   12.4689   -0.2113    0.0000 H   0  0  0  0  0  0  0  0  0  0  0  0
    9.4304   -1.6316    0.0000 H   0  0  0  0  0  0  0  0  0  0  0  0
    9.5096    1.3673    0.0000 H   0  0  0  0  0  0  0  0  0  0  0  0
    8.0101    1.4069    0.0000 H   0  0  0  0  0  0  0  0  0  0  0  0
    7.9309   -1.5920    0.0000 H   0  0  0  0  0  0  0  0  0  0  0  0
    6.4314   -1.5524    0.0000 H   0  0  0  0  0  0  0  0  0  0  0  0
    6.5106    1.4465    0.0000 H   0  0  0  0  0  0  0  0  0  0  0  0
    5.0112    1.4861    0.0000 H   0  0  0  0  0  0  0  0  0  0  0  0
    4.9320   -1.5128    0.0000 H   0  0  0  0  0  0  0  0  0  0  0  0
    3.4325   -1.4732    0.0000 H   0  0  0  0  0  0  0  0  0  0  0  0
    3.5117    1.5257    0.0000 H   0  0  0  0  0  0  0  0  0  0  0  0
    2.0122    1.5653    0.0000 H   0  0  0  0  0  0  0  0  0  0  0  0
    1.9330   -1.4336    0.0000 H   0  0  0  0  0  0  0  0  0  0  0  0
    0.4335   -1.3940    0.0000 H   0  0  0  0  0  0  0  0  0  0  0  0
    0.5127    1.6049    0.0000 H   0  0  0  0  0  0  0  0  0  0  0  0
   -0.9868    1.6445    0.0000 H   0  0  0  0  0  0  0  0  0  0  0  0
   -1.0659   -1.3544    0.0000 H   0  0  0  0  0  0  0  0  0  0  0  0
   -2.5654   -1.3148    0.0000 H   0  0  0  0  0  0  0  0  0  0  0  0
   -2.4862    1.6841    0.0000 H   0  0  0  0  0  0  0  0  0  0  0  0
   -3.9857    1.7237    0.0000 H   0  0  0  0  0  0  0  0  0  0  0  0
   -4.0649   -1.2753    0.0000 H   0  0  0  0  0  0  0  0  0  0  0  0
   -5.5644   -1.2357    0.0000 H   0  0  0  0  0  0  0  0  0  0  0  0
   -5.4852    1.7633    0.0000 H   0  0  0  0  0  0  0  0  0  0  0  0
   -7.3726    2.9536    0.0000 H   0  0  0  0  0  0  0  0  0  0  0  0
  -10.5018    2.0275    0.0000 H   0  0  0  0  0  0  0  0  0  0  0  0
   -7.5120   -2.3247    0.0000 H   0  0  0  0  0  0  0  0  0  0  0  0
  -11.4372    0.0016    0.0000 H   0  0  0  0  0  0  0  0  0  0  0  0
   -9.7386   -2.4711    0.0000 H   0  0  0  0  0  0  0  0  0  0  0  0
  -11.8243   -2.0841    0.0000 H   0  0  0  0  0  0  0  0  0  0  0  0
  1  2  1  0
  1 26  1  0
  1 27  1  0
  1 28  1  0
  2  3  1  0
  2 29  1  0
  2 30  1  0
  3  4  1  0
  3 31  1  0
  3 32  1  0
  4  5  1  0
  4 33  1  0
  4 34  1  0
  5  6  1  0
  5 35  1  0
  5 36  1  0
  6  7  1  0
  6 37  1  0
  6 38  1  0
  7  8  1  0
  7 39  1  0
  7 40  1  0
  8  9  1  0
  8 41  1  0
  8 42  1  0
  9 10  1  0
  9 43  1  0
  9 44  1  0
 10 11  1  0
 10 45  1  0
 10 46  1  0
 11 12  1  0
 11 47  1  0
 11 48  1  0
 12 13  1  0
 12 49  1  0
 12 50  1  0
 13 14  1  0
 13 17  1  0
 14 15  2  0
 14 51  1  0
 15 16  1  0
 15 52  1  0
 16 17  2  0
 16 18  1  0
 17 53  1  0
 18 54  1  0
 18 55  1  0
 18 56  1  0
 19 20  1  0
 20 21  1  0
 20 22  1  0
 20 23  1  0
 20 24  1  0
 20 25  1  0
M  CHG  2  16   1  20  -1
M  END
$$$$

     RDKit          2D

 16 17  0  0  0  0  0  0  0  0999 V2000
   -2.9206   -1.0250    0.0000 C   0  0  0  0  0  0  0  0  0  0  0  0
   -1.6436   -1.8119    0.0000 N   0  0  0  0  0  0  0  0  0  0  0  0
   -0.5006   -0.8405    0.0000 C   0  0  0  0  0  0  0  0  0  0  0  0
   -1.0712    0.5467    0.0000 C   0  0  0  0  0  0  0  0  0  0  0  0
   -2.5669    0.4327    0.0000 N   0  0  0  0  0  0  0  0  0  0  0  0
   -0.1551    1.7345    0.0000 C   0  0  0  0  0  0  0  0  0  0  0  0
   -0.7257    3.1217    0.0000 S   0  0  0  0  0  0  0  0  0  0  0  0
    1.3316    1.5351    0.0000 N   0  0  0  0  0  0  0  0  0  0  0  0
    1.9022    0.1478    0.0000 C   0  0  0  0  0  0  0  0  0  0  0  0
    0.9861   -1.0399    0.0000 N   0  0  0  0  0  0  0  0  0  0  0  0
    3.3888   -0.0516    0.0000 N   0  0  0  0  0  0  0  0  0  0  0  0
   -4.3078   -1.5956    0.0000 H   0  0  0  0  0  0  0  0  0  0  0  0
   -3.5382    1.5757    0.0000 H   0  0  0  0  0  0  0  0  0  0  0  0
    1.5567   -2.4272    0.0000 H   0  0  0  0  0  0  0  0  0  0  0  0
    3.9595   -1.4388    0.0000 H   0  0  0  0  0  0  0  0  0  0  0  0
    4.3049    1.1362    0.0000 H   0  0  0  0  0  0  0  0  0  0  0  0
  1  2  2  0
  1  5  1  0
  1 12  1  0
  2  3  1  0
  3  4  2  0
  3 10  1  0
  4  5  1  0
  4  6  1  0
  5 13  1  0
  6  7  2  0
  6  8  1  0
  8  9  2  0
  9 10  1  0
  9 11  1  0
 10 14  1  0
 11 15  1  0
 11 16  1  0
M  END
$$$$

     RDKit          2D

 47 49  0  0  0  0  0  0  0  0999 V2000
   -4.5539    1.9606    0.0000 C   0  0  0  0  0  0  0  0  0  0  0  0
   -3.4325    0.9644    0.0000 C   0  0  0  0  0  0  0  0  0  0  0  0
   -3.7345   -0.5049    0.0000 C   0  0  0  0  0  0  0  0  0  0  0  0
   -5.1580   -0.9779    0.0000 C   0  0  0  0  0  0  0  0  0  0  0  0
   -6.2794    0.0183    0.0000 C   0  0  0  0  0  0  0  0  0  0  0  0
   -5.9773    1.4876    0.0000 C   0  0  0  0  0  0  0  0  0  0  0  0
   -7.7029   -0.4547    0.0000 Cl  0  0  0  0  0  0  0  0  0  0  0  0
   -5.1480   -2.4779    0.0000 S   0  0  0  0  0  0  0  0  0  0  0  0
   -3.7184   -2.9319    0.0000 C   0  0  0  0  0  0  0  0  0  0  0  0
   -2.8448   -1.7125    0.0000 C   0  0  0  0  0  0  0  0  0  0  0  0
   -1.3448   -1.7025    0.0000 C   0  0  0  0  0  0  0  0  0  0  0  0
    0.1551   -1.6925    0.0000 O   0  0  0  0  0  0  0  0  0  0  0  0
    0.8965   -0.3885    0.0000 C   0  0  0  0  0  0  0  0  0  0  0  0
    1.6378    0.9156    0.0000 C   0  0  0  0  0  0  0  0  0  0  0  0
    2.3791    2.2196    0.0000 N   0  0  0  0  0  0  0  0  0  0  0  0
    1.7599    3.5858    0.0000 C   0  0  0  0  0  0  0  0  0  0  0  0
    2.8678    4.5969    0.0000 C   0  0  0  0  0  0  0  0  0  0  0  0
    4.1719    3.8556    0.0000 N   0  0  0  0  0  0  0  0  0  0  0  0
    3.8698    2.3863    0.0000 C   0  0  0  0  0  0  0  0  0  0  0  0
    2.2005   -1.1298    0.0000 C   0  0  0  0  0  0  0  0  0  0  0  0
    3.4945   -0.3711    0.0000 C   0  0  0  0  0  0  0  0  0  0  0  0
    4.7985   -1.1124    0.0000 C   0  0  0  0  0  0  0  0  0  0  0  0
    4.8085   -2.6124    0.0000 C   0  0  0  0  0  0  0  0  0  0  0  0
    3.5145   -3.3711    0.0000 C   0  0  0  0  0  0  0  0  0  0  0  0
    2.2105   -2.6297    0.0000 C   0  0  0  0  0  0  0  0  0  0  0  0
    6.1125   -3.3537    0.0000 Cl  0  0  0  0  0  0  0  0  0  0  0  0
    3.4886    0.5146    0.0000 Cl  0  0  0  0  0  0  0  0  0  0  0  0
    0.5196    8.5876    0.0000 N   0  0  0  0  0  0  0  0  0  0  0  0
    0.5196    7.0876    0.0000 O   0  0  0  0  0  0  0  0  0  0  0  0
   -0.7794    9.3376    0.0000 O   0  0  0  0  0  0  0  0  0  0  0  0
    1.8187    9.3376    0.0000 O   0  0  0  0  0  0  0  0  0  0  0  0
   -4.2518    3.4299    0.0000 H   0  0  0  0  0  0  0  0  0  0  0  0
   -2.0090    1.4374    0.0000 H   0  0  0  0  0  0  0  0  0  0  0  0
   -7.0987    2.4838    0.0000 H   0  0  0  0  0  0  0  0  0  0  0  0
   -3.2453   -4.3553    0.0000 H   0  0  0  0  0  0  0  0  0  0  0  0
   -1.3548   -0.2025    0.0000 H   0  0  0  0  0  0  0  0  0  0  0  0
   -1.3348   -3.2025    0.0000 H   0  0  0  0  0  0  0  0  0  0  0  0
   -0.4076    0.3529    0.0000 H   0  0  0  0  0  0  0  0  0  0  0  0
    0.3338    1.6569    0.0000 H   0  0  0  0  0  0  0  0  0  0  0  0
    2.4908    0.6771    0.0000 H   0  0  0  0  0  0  0  0  0  0  0  0
    0.2906    3.8879    0.0000 H   0  0  0  0  0  0  0  0  0  0  0  0
    2.7011    6.0876    0.0000 H   0  0  0  0  0  0  0  0  0  0  0  0
    4.8809    1.2783    0.0000 H   0  0  0  0  0  0  0  0  0  0  0  0
    6.0925   -0.3538    0.0000 H   0  0  0  0  0  0  0  0  0  0  0  0
    3.5245   -4.8710    0.0000 H   0  0  0  0  0  0  0  0  0  0  0  0
    0.9165   -3.3884    0.0000 H   0  0  0  0  0  0  0  0  0  0  0  0
   -2.0785    8.5876    0.0000 H   0  0  0  0  0  0  0  0  0  0  0  0
  1  2  2  0
  1  6  1  0
  1 32  1  0
  2  3  1  0
  2 33  1  0
  3  4  2  0
  3 10  1  0
  4  5  1  0
  4  8  1  0
  5  6  2  0
  5  7  1  0
  6 34  1  0
  8  9  1  0
  9 10  2  0
  9 35  1  0
 10 11  1  0
 11 12  1  0
 11 36  1  0
 11 37  1  0
 12 13  1  0
 13 14  1  0
 13 20  1  0
 13 38  1  6
 14 15  1  0
 14 39  1  0
 14 40  1  0
 15 16  1  0
 15 19  1  0
 16 17  2  0
 16 41  1  0
 17 18  1  0
 17 42  1  0
 18 19  2  0
 19 43  1  0
 20 21  2  0
 20 25  1  0
 21 22  1  0
 21 27  1  0
 22 23  2  0
 22 44  1  0
 23 24  1  0
 23 26  1  0
 24 25  2  0
 24 45  1  0
 25 46  1  0
 28 29  2  0
 28 30  1  0
 28 31  1  0
 30 47  1  0
M  CHG  2  28   1  31  -1
M  END
$$$$

     RDKit          2D

 63 66  0  0  0  0  0  0  0  0999 V2000
    8.7700    1.6327    0.0000 C   0  0  0  0  0  0  0  0  0  0  0  0
    8.8181    0.1335    0.0000 C   0  0  0  0  0  0  0  0  0  0  0  0
    7.5437   -0.6577    0.0000 C   0  0  0  0  0  0  0  0  0  0  0  0
    6.2213    0.0503    0.0000 N   0  0  0  0  0  0  0  0  0  0  0  0
    6.1733    1.5495    0.0000 C   0  0  0  0  0  0  0  0  0  0  0  0
    7.4476    2.3407    0.0000 C   0  0  0  0  0  0  0  0  0  0  0  0
    4.9470   -0.7410    0.0000 C   0  0  0  0  0  0  0  0  0  0  0  0
    3.6726   -1.5322    0.0000 C   0  0  0  0  0  0  0  0  0  0  0  0
    2.3983   -2.3234    0.0000 O   0  0  0  0  0  0  0  0  0  0  0  0
    1.0759   -1.6154    0.0000 C   0  0  0  0  0  0  0  0  0  0  0  0
    1.0278   -0.1162    0.0000 C   0  0  0  0  0  0  0  0  0  0  0  0
   -0.2946    0.5918    0.0000 C   0  0  0  0  0  0  0  0  0  0  0  0
   -1.5689   -0.1994    0.0000 C   0  0  0  0  0  0  0  0  0  0  0  0
   -1.5208   -1.6987    0.0000 C   0  0  0  0  0  0  0  0  0  0  0  0
   -0.1984   -2.4067    0.0000 C   0  0  0  0  0  0  0  0  0  0  0  0
   -2.8913    0.5085    0.0000 C   0  0  0  0  0  0  0  0  0  0  0  0
   -2.7563    2.0025    0.0000 O   0  0  0  0  0  0  0  0  0  0  0  0
   -4.1656   -0.2827    0.0000 C   0  0  0  0  0  0  0  0  0  0  0  0
   -5.5548    0.2832    0.0000 C   0  0  0  0  0  0  0  0  0  0  0  0
   -6.5223   -0.8631    0.0000 S   0  0  0  0  0  0  0  0  0  0  0  0
   -5.7310   -2.1374    0.0000 C   0  0  0  0  0  0  0  0  0  0  0  0
   -4.2746   -1.7787    0.0000 C   0  0  0  0  0  0  0  0  0  0  0  0
   -3.2357   -2.8607    0.0000 C   0  0  0  0  0  0  0  0  0  0  0  0
   -3.6532   -4.3014    0.0000 C   0  0  0  0  0  0  0  0  0  0  0  0
   -5.1097   -4.6601    0.0000 C   0  0  0  0  0  0  0  0  0  0  0  0
   -6.1486   -3.5782    0.0000 C   0  0  0  0  0  0  0  0  0  0  0  0
   -5.5273   -6.1008    0.0000 O   0  0  0  0  0  0  0  0  0  0  0  0
   -5.9135    1.7397    0.0000 C   0  0  0  0  0  0  0  0  0  0  0  0
   -4.8315    2.7786    0.0000 C   0  0  0  0  0  0  0  0  0  0  0  0
   -5.1903    4.2350    0.0000 C   0  0  0  0  0  0  0  0  0  0  0  0
   -6.6310    4.6526    0.0000 C   0  0  0  0  0  0  0  0  0  0  0  0
   -7.7129    3.6137    0.0000 C   0  0  0  0  0  0  0  0  0  0  0  0
   -7.3542    2.1573    0.0000 C   0  0  0  0  0  0  0  0  0  0  0  0
   -6.9897    6.1091    0.0000 O   0  0  0  0  0  0  0  0  0  0  0  0
   -0.7500    7.5267    0.0000 Cl  0  0  0  0  0  0  0  0  0  0  0  0
    9.2376    3.0580    0.0000 H   0  0  0  0  0  0  0  0  0  0  0  0
   10.2548    1.4197    0.0000 H   0  0  0  0  0  0  0  0  0  0  0  0
   10.2862    0.4412    0.0000 H   0  0  0  0  0  0  0  0  0  0  0  0
    9.3760   -1.2589    0.0000 H   0  0  0  0  0  0  0  0  0  0  0  0
    8.5442   -1.7753    0.0000 H   0  0  0  0  0  0  0  0  0  0  0  0
    6.7675   -1.9413    0.0000 H   0  0  0  0  0  0  0  0  0  0  0  0
    4.6786    1.4231    0.0000 H   0  0  0  0  0  0  0  0  0  0  0  0
    5.6153    2.9419    0.0000 H   0  0  0  0  0  0  0  0  0  0  0  0
    6.4471    3.4583    0.0000 H   0  0  0  0  0  0  0  0  0  0  0  0
    8.3745    3.5201    0.0000 H   0  0  0  0  0  0  0  0  0  0  0  0
    4.0063    0.4274    0.0000 H   0  0  0  0  0  0  0  0  0  0  0  0
    5.5770   -2.1022    0.0000 H   0  0  0  0  0  0  0  0  0  0  0  0
    4.4639   -2.8065    0.0000 H   0  0  0  0  0  0  0  0  0  0  0  0
    2.8814   -0.2579    0.0000 H   0  0  0  0  0  0  0  0  0  0  0  0
    2.3022    0.6750    0.0000 H   0  0  0  0  0  0  0  0  0  0  0  0
   -0.3426    2.0910    0.0000 H   0  0  0  0  0  0  0  0  0  0  0  0
   -2.0762   -2.2706    0.0000 H   0  0  0  0  0  0  0  0  0  0  0  0
   -0.1504   -3.9059    0.0000 H   0  0  0  0  0  0  0  0  0  0  0  0
   -2.3756   -2.6489    0.0000 H   0  0  0  0  0  0  0  0  0  0  0  0
   -2.6144   -5.3834    0.0000 H   0  0  0  0  0  0  0  0  0  0  0  0
   -7.6051   -3.9369    0.0000 H   0  0  0  0  0  0  0  0  0  0  0  0
   -4.4884   -7.1828    0.0000 H   0  0  0  0  0  0  0  0  0  0  0  0
   -3.3507    2.5397    0.0000 H   0  0  0  0  0  0  0  0  0  0  0  0
   -4.1083    5.2739    0.0000 H   0  0  0  0  0  0  0  0  0  0  0  0
   -9.1536    4.0313    0.0000 H   0  0  0  0  0  0  0  0  0  0  0  0
   -8.4362    1.1184    0.0000 H   0  0  0  0  0  0  0  0  0  0  0  0
   -8.4304    6.5267    0.0000 H   0  0  0  0  0  0  0  0  0  0  0  0
    0.7500    7.5267    0.0000 H   0  0  0  0  0  0  0  0  0  0  0  0
  1  2  1  0
  1  6  1  0
  1 36  1  0
  1 37  1  0
  2  3  1  0
  2 38  1  0
  2 39  1  0
  3  4  1  0
  3 40  1  0
  3 41  1  0
  4  5  1  0
  4  7  1  0
  5  6  1  0
  5 42  1  0
  5 43  1  0
  6 44  1  0
  6 45  1  0
  7  8  1  0
  7 46  1  0
  7 47  1  0
  8  9  1  0
  8 48  1  0
  8 49  1  0
  9 10  1  0
 10 11  2  0
 10 15  1  0
 11 12  1  0
 11 50  1  0
 12 13  2  0
 12 51  1  0
 13 14  1  0
 13 16  1  0
 14 15  2  0
 14 52  1  0
 15 53  1  0
 16 17  2  0
 16 18  1  0
 18 19  2  0
 18 22  1  0
 19 20  1  0
 19 28  1  0
 20 21  1  0
 21 22  2  0
 21 26  1  0
 22 23  1  0
 23 24  2  0
 23 54  1  0
 24 25  1  0
 24 55  1  0
 25 26  2  0
 25 27  1  0
 26 56  1  0
 27 57  1  0
 28 29  2  0
 28 33  1  0
 29 30  1  0
 29 58  1  0
 30 31  2  0
 30 59  1  0
 31 32  1  0
 31 34  1  0
 32 33  2  0
 32 60  1  0
 33 61  1  0
 34 62  1  0
 35 63  1  0
M  END
$$$$

     RDKit          2D

 29 29  0  0  0  0  0  0  0  0999 V2000
    3.9424   -0.8511    0.0000 C   0  0  0  0  0  0  0  0  0  0  0  0
    2.7928    0.1125    0.0000 N   0  0  0  0  0  0  0  0  0  0  0  0
    3.0526    1.5899    0.0000 C   0  0  0  0  0  0  0  0  0  0  0  0
    1.3836   -0.4012    0.0000 S   0  0  0  0  0  0  0  0  0  0  0  0
    0.8698    1.0081    0.0000 O   0  0  0  0  0  0  0  0  0  0  0  0
    1.8973   -1.8105    0.0000 O   0  0  0  0  0  0  0  0  0  0  0  0
   -0.0257   -0.9149    0.0000 N   0  0  0  0  0  0  0  0  0  0  0  0
   -1.1753    0.0487    0.0000 C   0  0  0  0  0  0  0  0  0  0  0  0
   -2.5846   -0.4650    0.0000 C   0  0  0  0  0  0  0  0  0  0  0  0
   -3.7341    0.4987    0.0000 C   0  0  0  0  0  0  0  0  0  0  0  0
   -3.4743    1.9760    0.0000 C   0  0  0  0  0  0  0  0  0  0  0  0
   -2.0650    2.4897    0.0000 C   0  0  0  0  0  0  0  0  0  0  0  0
   -0.9155    1.5261    0.0000 C   0  0  0  0  0  0  0  0  0  0  0  0
   -0.2855   -2.3922    0.0000 S   0  0  0  0  0  0  0  0  0  0  0  0
   -1.6948   -2.9059    0.0000 C   0  0  0  0  0  0  0  0  0  0  0  0
   -3.1041   -3.4196    0.0000 F   0  0  0  0  0  0  0  0  0  0  0  0
   -1.1811   -4.3152    0.0000 Cl  0  0  0  0  0  0  0  0  0  0  0  0
   -2.1420   -2.0293    0.0000 Cl  0  0  0  0  0  0  0  0  0  0  0  0
    4.9060    0.2984    0.0000 H   0  0  0  0  0  0  0  0  0  0  0  0
    2.9788   -2.0006    0.0000 H   0  0  0  0  0  0  0  0  0  0  0  0
    5.0919   -1.8147    0.0000 H   0  0  0  0  0  0  0  0  0  0  0  0
    4.5299    1.3301    0.0000 H   0  0  0  0  0  0  0  0  0  0  0  0
    1.5753    1.8496    0.0000 H   0  0  0  0  0  0  0  0  0  0  0  0
    3.3124    3.0672    0.0000 H   0  0  0  0  0  0  0  0  0  0  0  0
   -2.8719   -1.4063    0.0000 H   0  0  0  0  0  0  0  0  0  0  0  0
   -5.1434   -0.0151    0.0000 H   0  0  0  0  0  0  0  0  0  0  0  0
   -4.6239    2.9396    0.0000 H   0  0  0  0  0  0  0  0  0  0  0  0
   -1.8053    3.9670    0.0000 H   0  0  0  0  0  0  0  0  0  0  0  0
    0.4938    2.0398    0.0000 H   0  0  0  0  0  0  0  0  0  0  0  0
  1  2  1  0
  1 19  1  0
  1 20  1  0
  1 21  1  0
  2  3  1  0
  2  4  1  0
  3 22  1  0
  3 23  1  0
  3 24  1  0
  4  5  2  0
  4  6  2  0
  4  7  1  0
  7  8  1  0
  7 14  1  0
  8  9  2  0
  8 13  1  0
  9 10  1  0
  9 25  1  0
 10 11  2  0
 10 26  1  0
 11 12  1  0
 11 27  1  0
 12 13  2  0
 12 28  1  0
 13 29  1  0
 14 15  1  0
 15 16  1  0
 15 17  1  0
 15 18  1  0
M  END
$$$$

     RDKit          2D

 37 39  0  0  0  0  0  0  0  0999 V2000
   -4.2097    3.1458    0.0000 C   0  0  0  0  0  0  0  0  0  0  0  0
   -3.2125    2.0253    0.0000 O   0  0  0  0  0  0  0  0  0  0  0  0
   -3.6843    0.6014    0.0000 C   0  0  0  0  0  0  0  0  0  0  0  0
   -5.1533    0.2980    0.0000 C   0  0  0  0  0  0  0  0  0  0  0  0
   -5.6250   -1.1259    0.0000 C   0  0  0  0  0  0  0  0  0  0  0  0
   -4.6278   -2.2464    0.0000 C   0  0  0  0  0  0  0  0  0  0  0  0
   -3.1588   -1.9430    0.0000 C   0  0  0  0  0  0  0  0  0  0  0  0
   -2.6870   -0.5191    0.0000 C   0  0  0  0  0  0  0  0  0  0  0  0
   -1.2180   -0.2157    0.0000 N   0  0  0  0  0  0  0  0  0  0  0  0
   -0.2208   -1.3362    0.0000 C   0  0  0  0  0  0  0  0  0  0  0  0
   -0.6926   -2.7601    0.0000 O   0  0  0  0  0  0  0  0  0  0  0  0
    1.2482   -1.0328    0.0000 C   0  0  0  0  0  0  0  0  0  0  0  0
    1.7200    0.3911    0.0000 C   0  0  0  0  0  0  0  0  0  0  0  0
    3.1890    0.6944    0.0000 C   0  0  0  0  0  0  0  0  0  0  0  0
    3.6607    2.1183    0.0000 C   0  0  0  0  0  0  0  0  0  0  0  0
    5.1297    2.4217    0.0000 C   0  0  0  0  0  0  0  0  0  0  0  0
    6.1270    1.3012    0.0000 C   0  0  0  0  0  0  0  0  0  0  0  0
    5.6552   -0.1227    0.0000 C   0  0  0  0  0  0  0  0  0  0  0  0
    4.1862   -0.4260    0.0000 C   0  0  0  0  0  0  0  0  0  0  0  0
    3.7144   -1.8499    0.0000 C   0  0  0  0  0  0  0  0  0  0  0  0
    2.2454   -2.1533    0.0000 C   0  0  0  0  0  0  0  0  0  0  0  0
    1.7737   -3.5772    0.0000 O   0  0  0  0  0  0  0  0  0  0  0  0
   -3.0892    4.1430    0.0000 H   0  0  0  0  0  0  0  0  0  0  0  0
   -5.3302    2.1486    0.0000 H   0  0  0  0  0  0  0  0  0  0  0  0
   -5.2070    4.2663    0.0000 H   0  0  0  0  0  0  0  0  0  0  0  0
   -6.1505    1.4185    0.0000 H   0  0  0  0  0  0  0  0  0  0  0  0
   -7.0940   -1.4292    0.0000 H   0  0  0  0  0  0  0  0  0  0  0  0
   -5.0996   -3.6702    0.0000 H   0  0  0  0  0  0  0  0  0  0  0  0
   -2.1616   -3.0635    0.0000 H   0  0  0  0  0  0  0  0  0  0  0  0
   -0.7463    1.2082    0.0000 H   0  0  0  0  0  0  0  0  0  0  0  0
    0.7227    1.5116    0.0000 H   0  0  0  0  0  0  0  0  0  0  0  0
    2.6635    3.2388    0.0000 H   0  0  0  0  0  0  0  0  0  0  0  0
    5.6015    3.8456    0.0000 H   0  0  0  0  0  0  0  0  0  0  0  0
    7.5960    1.6046    0.0000 H   0  0  0  0  0  0  0  0  0  0  0  0
    6.6524   -1.2432    0.0000 H   0  0  0  0  0  0  0  0  0  0  0  0
    4.7117   -2.9704    0.0000 H   0  0  0  0  0  0  0  0  0  0  0  0
    2.7709   -4.6977    0.0000 H   0  0  0  0  0  0  0  0  0  0  0  0
  1  2  1  0
  1 23  1  0
  1 24  1  0
  1 25  1  0
  2  3  1  0
  3  4  2  0
  3  8  1  0
  4  5  1  0
  4 26  1  0
  5  6  2  0
  5 27  1  0
  6  7  1  0
  6 28  1  0
  7  8  2  0
  7 29  1  0
  8  9  1  0
  9 10  1  0
  9 30  1  0
 10 11  2  0
 10 12  1  0
 12 13  2  0
 12 21  1  0
 13 14  1  0
 13 31  1  0
 14 15  2  0
 14 19  1  0
 15 16  1  0
 15 32  1  0
 16 17  2  0
 16 33  1  0
 17 18  1  0
 17 34  1  0
 18 19  2  0
 18 35  1  0
 19 20  1  0
 20 21  2  0
 20 36  1  0
 21 22  1  0
 22 37  1  0
M  END
$$$$

     RDKit          2D

 30 32  0  0  1  0  0  0  0  0999 V2000
    0.2034    2.3507    0.0000 C   0  0  0  0  0  0  0  0  0  0  0  0
    1.1975    1.2273    0.0000 C   0  0  0  0  0  0  0  0  0  0  0  0
    0.4363   -0.0652    0.0000 S   0  0  0  0  0  0  0  0  0  0  0  0
   -1.0282    0.2593    0.0000 C   0  0  0  0  0  0  0  0  0  0  0  0
   -2.1515   -0.7347    0.0000 C   0  0  0  0  0  0  0  0  0  0  0  0
   -1.8523   -2.2046    0.0000 C   0  0  0  0  0  0  0  0  0  0  0  0
   -1.5531   -3.6744    0.0000 N   0  0  0  0  0  0  0  0  0  0  0  0
   -3.5740   -0.2589    0.0000 N   0  0  0  0  0  0  0  0  0  0  0  0
   -4.7951   -1.1301    0.0000 C   0  0  0  0  0  0  0  0  0  0  0  0
   -6.0010   -0.2379    0.0000 C   0  0  0  0  0  0  0  0  0  0  0  0
   -5.5252    1.1846    0.0000 N   0  0  0  0  0  0  0  0  0  0  0  0
   -4.0252    1.1716    0.0000 C   0  0  0  0  0  0  0  0  0  0  0  0
   -1.1721    1.7524    0.0000 S   0  0  0  0  0  0  0  0  0  0  0  0
    2.4034    0.3352    0.0000 C   0  0  0  0  0  0  0  0  0  0  0  0
    2.2337   -1.1551    0.0000 C   0  0  0  0  0  0  0  0  0  0  0  0
    3.4396   -2.0473    0.0000 C   0  0  0  0  0  0  0  0  0  0  0  0
    4.8151   -1.4490    0.0000 C   0  0  0  0  0  0  0  0  0  0  0  0
    4.9848    0.0414    0.0000 C   0  0  0  0  0  0  0  0  0  0  0  0
    3.7789    0.9335    0.0000 C   0  0  0  0  0  0  0  0  0  0  0  0
    6.0210   -2.3411    0.0000 Cl  0  0  0  0  0  0  0  0  0  0  0  0
    0.8582   -1.7534    0.0000 Cl  0  0  0  0  0  0  0  0  0  0  0  0
    1.4245    3.2219    0.0000 H   0  0  0  0  0  0  0  0  0  0  0  0
   -0.5353    3.6561    0.0000 H   0  0  0  0  0  0  0  0  0  0  0  0
    2.2108    2.3334    0.0000 H   0  0  0  0  0  0  0  0  0  0  0  0
   -4.8081   -2.6300    0.0000 H   0  0  0  0  0  0  0  0  0  0  0  0
   -7.4315   -0.6891    0.0000 H   0  0  0  0  0  0  0  0  0  0  0  0
   -3.1331    2.3775    0.0000 H   0  0  0  0  0  0  0  0  0  0  0  0
    3.2699   -3.5376    0.0000 H   0  0  0  0  0  0  0  0  0  0  0  0
    6.3603    0.6396    0.0000 H   0  0  0  0  0  0  0  0  0  0  0  0
    3.9485    2.4239    0.0000 H   0  0  0  0  0  0  0  0  0  0  0  0
  1  2  1  0
  1 13  1  0
  1 22  1  0
  1 23  1  0
  2  3  1  0
  2 24  1  6
  2 14  1  0
  3  4  1  0
  4  5  2  0
  4 13  1  0
  5  6  1  0
  5  8  1  0
  6  7  3  0
  8  9  1  0
  8 12  1  0
  9 10  2  0
  9 25  1  0
 10 11  1  0
 10 26  1  0
 11 12  2  0
 12 27  1  0
 14 15  2  0
 14 19  1  0
 15 16  1  0
 15 21  1  0
 16 17  2  0
 16 28  1  0
 17 18  1  0
 17 20  1  0
 18 19  2  0
 18 29  1  0
 19 30  1  0
M  END
$$$$

     RDKit          2D

 53 54  0  0  1  0  0  0  0  0999 V2000
   -3.8494    2.2971    0.0000 B   0  0  0  0  0  0  0  0  0  0  0  0
   -2.7203    1.3096    0.0000 C   0  0  0  0  0  0  0  0  0  0  0  0
   -3.7078    0.1805    0.0000 C   0  0  0  0  0  0  0  0  0  0  0  0
   -4.6953   -0.9486    0.0000 C   0  0  0  0  0  0  0  0  0  0  0  0
   -3.5662   -1.9361    0.0000 C   0  0  0  0  0  0  0  0  0  0  0  0
   -5.6828   -2.0777    0.0000 C   0  0  0  0  0  0  0  0  0  0  0  0
   -1.7328    2.4387    0.0000 N   0  0  0  0  0  0  0  0  0  0  0  0
   -0.2613    2.1481    0.0000 C   0  0  0  0  0  0  0  0  0  0  0  0
    0.5812    3.3891    0.0000 O   0  0  0  0  0  0  0  0  0  0  0  0
    0.2228    0.7284    0.0000 C   0  0  0  0  0  0  0  0  0  0  0  0
    1.6426    1.2124    0.0000 C   0  0  0  0  0  0  0  0  0  0  0  0
    3.0623    1.6965    0.0000 C   0  0  0  0  0  0  0  0  0  0  0  0
    4.1914    0.7091    0.0000 C   0  0  0  0  0  0  0  0  0  0  0  0
    5.6111    1.1932    0.0000 C   0  0  0  0  0  0  0  0  0  0  0  0
    5.9018    2.6647    0.0000 C   0  0  0  0  0  0  0  0  0  0  0  0
    4.7727    3.6522    0.0000 C   0  0  0  0  0  0  0  0  0  0  0  0
    3.3529    3.1681    0.0000 C   0  0  0  0  0  0  0  0  0  0  0  0
    0.7069   -0.6914    0.0000 N   0  0  0  0  0  0  0  0  0  0  0  0
    2.1785   -0.9820    0.0000 C   0  0  0  0  0  0  0  0  0  0  0  0
    2.8984   -0.1589    0.0000 O   0  0  0  0  0  0  0  0  0  0  0  0
    2.6626   -2.4018    0.0000 C   0  0  0  0  0  0  0  0  0  0  0  0
    1.6751   -3.5309    0.0000 N   0  0  0  0  0  0  0  0  0  0  0  0
    2.1592   -4.9506    0.0000 C   0  0  0  0  0  0  0  0  0  0  0  0
    3.6308   -5.2412    0.0000 C   0  0  0  0  0  0  0  0  0  0  0  0
    4.6183   -4.1121    0.0000 N   0  0  0  0  0  0  0  0  0  0  0  0
    4.1342   -2.6924    0.0000 C   0  0  0  0  0  0  0  0  0  0  0  0
   -3.5588    3.7687    0.0000 O   0  0  0  0  0  0  0  0  0  0  0  0
   -5.2692    1.8130    0.0000 O   0  0  0  0  0  0  0  0  0  0  0  0
   -1.9101    0.4042    0.0000 H   0  0  0  0  0  0  0  0  0  0  0  0
   -2.9750   -0.3170    0.0000 H   0  0  0  0  0  0  0  0  0  0  0  0
   -5.0423    0.8654    0.0000 H   0  0  0  0  0  0  0  0  0  0  0  0
   -5.8244    0.0389    0.0000 H   0  0  0  0  0  0  0  0  0  0  0  0
   -4.0637   -2.6689    0.0000 H   0  0  0  0  0  0  0  0  0  0  0  0
   -2.9062   -1.3454    0.0000 H   0  0  0  0  0  0  0  0  0  0  0  0
   -2.4371   -2.9236    0.0000 H   0  0  0  0  0  0  0  0  0  0  0  0
   -5.0921   -2.7377    0.0000 H   0  0  0  0  0  0  0  0  0  0  0  0
   -6.8119   -1.0902    0.0000 H   0  0  0  0  0  0  0  0  0  0  0  0
   -6.6702   -3.2068    0.0000 H   0  0  0  0  0  0  0  0  0  0  0  0
   -2.2169    3.8585    0.0000 H   0  0  0  0  0  0  0  0  0  0  0  0
   -0.8708    0.1990    0.0000 H   0  0  0  0  0  0  0  0  0  0  0  0
    2.2354    0.2936    0.0000 H   0  0  0  0  0  0  0  0  0  0  0  0
    1.3351    2.6806    0.0000 H   0  0  0  0  0  0  0  0  0  0  0  0
    3.9008   -0.7625    0.0000 H   0  0  0  0  0  0  0  0  0  0  0  0
    6.7402    0.2057    0.0000 H   0  0  0  0  0  0  0  0  0  0  0  0
    7.3215    3.1488    0.0000 H   0  0  0  0  0  0  0  0  0  0  0  0
    5.0633    5.1238    0.0000 H   0  0  0  0  0  0  0  0  0  0  0  0
    2.2238    4.1556    0.0000 H   0  0  0  0  0  0  0  0  0  0  0  0
   -0.2806   -1.8205    0.0000 H   0  0  0  0  0  0  0  0  0  0  0  0
    1.1717   -6.0797    0.0000 H   0  0  0  0  0  0  0  0  0  0  0  0
    4.1149   -6.6610    0.0000 H   0  0  0  0  0  0  0  0  0  0  0  0
    5.1216   -1.5633    0.0000 H   0  0  0  0  0  0  0  0  0  0  0  0
   -4.6879    4.7562    0.0000 H   0  0  0  0  0  0  0  0  0  0  0  0
   -6.3983    2.8005    0.0000 H   0  0  0  0  0  0  0  0  0  0  0  0
  1  2  1  0
  1 27  1  0
  1 28  1  0
  2  3  1  0
  2  7  1  0
  2 29  1  1
  3  4  1  0
  3 30  1  0
  3 31  1  0
  4  5  1  0
  4  6  1  0
  4 32  1  0
  5 33  1  0
  5 34  1  0
  5 35  1  0
  6 36  1  0
  6 37  1  0
  6 38  1  0
  7  8  1  0
  7 39  1  0
  8  9  2  0
  8 10  1  0
 10 11  1  0
 10 18  1  0
 10 40  1  6
 11 12  1  0
 11 41  1  0
 11 42  1  0
 12 13  2  0
 12 17  1  0
 13 14  1  0
 13 43  1  0
 14 15  2  0
 14 44  1  0
 15 16  1  0
 15 45  1  0
 16 17  2  0
 16 46  1  0
 17 47  1  0
 18 19  1  0
 18 48  1  0
 19 20  2  0
 19 21  1  0
 21 22  2  0
 21 26  1  0
 22 23  1  0
 23 24  2  0
 23 49  1  0
 24 25  1  0
 24 50  1  0
 25 26  2  0
 26 51  1  0
 27 52  1  0
 28 53  1  0
M  END
$$$$

     RDKit          2D

119126  0  0  1  0  0  0  0  0999 V2000
   11.3187   -5.0507    0.0000 C   0  0  0  0  0  0  0  0  0  0  0  0
   10.2855   -3.9632    0.0000 C   0  0  0  0  0  0  0  0  0  0  0  0
   11.5359   -3.1346    0.0000 C   0  0  0  0  0  0  0  0  0  0  0  0
   11.4434   -1.6374    0.0000 C   0  0  0  0  0  0  0  0  0  0  0  0
   10.1007   -0.9689    0.0000 C   0  0  0  0  0  0  0  0  0  0  0  0
    8.8503   -1.7975    0.0000 C   0  0  0  0  0  0  0  0  0  0  0  0
    8.9427   -3.2946    0.0000 O   0  0  0  0  0  0  0  0  0  0  0  0
    8.2514   -0.4223    0.0000 O   0  0  0  0  0  0  0  0  0  0  0  0
    6.7609   -0.2533    0.0000 C   0  0  0  0  0  0  0  0  0  0  0  0
    5.3026   -0.6043    0.0000 C   0  0  0  0  0  0  0  0  0  0  0  0
    4.2694    0.4832    0.0000 O   0  0  0  0  0  0  0  0  0  0  0  0
    4.6946    1.9217    0.0000 C   0  0  0  0  0  0  0  0  0  0  0  0
    6.1530    2.2726    0.0000 C   0  0  0  0  0  0  0  0  0  0  0  0
    7.1861    1.1852    0.0000 C   0  0  0  0  0  0  0  0  0  0  0  0
    8.0777    2.3915    0.0000 O   0  0  0  0  0  0  0  0  0  0  0  0
    4.6022    3.4188    0.0000 O   0  0  0  0  0  0  0  0  0  0  0  0
    3.2594    4.0873    0.0000 C   0  0  0  0  0  0  0  0  0  0  0  0
    2.2263    5.1748    0.0000 C   0  0  0  0  0  0  0  0  0  0  0  0
    0.7679    4.8238    0.0000 O   0  0  0  0  0  0  0  0  0  0  0  0
    0.3427    3.3853    0.0000 C   0  0  0  0  0  0  0  0  0  0  0  0
    1.3759    2.2979    0.0000 C   0  0  0  0  0  0  0  0  0  0  0  0
    2.8342    2.6489    0.0000 C   0  0  0  0  0  0  0  0  0  0  0  0
    2.9266    1.1517    0.0000 O   0  0  0  0  0  0  0  0  0  0  0  0
   -0.5488    2.1790    0.0000 O   0  0  0  0  0  0  0  0  0  0  0  0
   -2.0393    2.3480    0.0000 C   0  0  0  0  0  0  0  0  0  0  0  0
   -3.3821    3.0165    0.0000 C   0  0  0  0  0  0  0  0  0  0  0  0
   -4.6324    2.1879    0.0000 C   0  0  0  0  0  0  0  0  0  0  0  0
   -4.5400    0.6908    0.0000 C   0  0  0  0  0  0  0  0  0  0  0  0
   -3.1972    0.0222    0.0000 C   0  0  0  0  0  0  0  0  0  0  0  0
   -1.9469    0.8508    0.0000 C   0  0  0  0  0  0  0  0  0  0  0  0
   -3.1048   -1.4749    0.0000 C   0  0  0  0  0  0  0  0  0  0  0  0
   -4.3551   -2.3035    0.0000 C   0  0  0  0  0  0  0  0  0  0  0  0
   -5.6979   -1.6350    0.0000 C   0  0  0  0  0  0  0  0  0  0  0  0
   -5.7904   -0.1379    0.0000 C   0  0  0  0  0  0  0  0  0  0  0  0
   -7.1331    0.5307    0.0000 C   0  0  0  0  0  0  0  0  0  0  0  0
   -8.3835   -0.2979    0.0000 C   0  0  0  0  0  0  0  0  0  0  0  0
   -8.2911   -1.7951    0.0000 C   0  0  0  0  0  0  0  0  0  0  0  0
   -6.9483   -2.4636    0.0000 C   0  0  0  0  0  0  0  0  0  0  0  0
   -7.1692   -3.9473    0.0000 C   0  0  0  0  0  0  0  0  0  0  0  0
   -8.6484   -4.1957    0.0000 C   0  0  0  0  0  0  0  0  0  0  0  0
   -9.3418   -2.8656    0.0000 C   0  0  0  0  0  0  0  0  0  0  0  0
  -10.2966   -1.7087    0.0000 C   0  0  0  0  0  0  0  0  0  0  0  0
  -11.7938   -1.8011    0.0000 C   0  0  0  0  0  0  0  0  0  0  0  0
  -12.3443   -0.4058    0.0000 C   0  0  0  0  0  0  0  0  0  0  0  0
  -13.7967   -0.0310    0.0000 O   0  0  0  0  0  0  0  0  0  0  0  0
  -11.1874    0.5490    0.0000 O   0  0  0  0  0  0  0  0  0  0  0  0
   -9.9219   -0.2562    0.0000 C   0  0  0  0  0  0  0  0  0  0  0  0
   -7.1967   -0.9843    0.0000 O   0  0  0  0  0  0  0  0  0  0  0  0
   -9.6964   -1.2706    0.0000 C   0  0  0  0  0  0  0  0  0  0  0  0
   -8.9824    1.0773    0.0000 O   0  0  0  0  0  0  0  0  0  0  0  0
   -3.2896    1.5194    0.0000 C   0  0  0  0  0  0  0  0  0  0  0  0
    3.4766    6.0034    0.0000 C   0  0  0  0  0  0  0  0  0  0  0  0
    5.9015   -1.9795    0.0000 C   0  0  0  0  0  0  0  0  0  0  0  0
   11.8686   -0.1989    0.0000 O   0  0  0  0  0  0  0  0  0  0  0  0
   12.9942   -2.7836    0.0000 O   0  0  0  0  0  0  0  0  0  0  0  0
   10.2312   -6.0838    0.0000 H   0  0  0  0  0  0  0  0  0  0  0  0
   11.9592   -4.5761    0.0000 H   0  0  0  0  0  0  0  0  0  0  0  0
   12.3518   -6.1381    0.0000 H   0  0  0  0  0  0  0  0  0  0  0  0
    9.3940   -5.1695    0.0000 H   0  0  0  0  0  0  0  0  0  0  0  0
   11.9409   -3.8212    0.0000 H   0  0  0  0  0  0  0  0  0  0  0  0
   12.9434   -1.6234    0.0000 H   0  0  0  0  0  0  0  0  0  0  0  0
   10.9922    0.2374    0.0000 H   0  0  0  0  0  0  0  0  0  0  0  0
    9.2078    0.2364    0.0000 H   0  0  0  0  0  0  0  0  0  0  0  0
    7.3919   -2.1485    0.0000 H   0  0  0  0  0  0  0  0  0  0  0  0
    6.8534   -1.7504    0.0000 H   0  0  0  0  0  0  0  0  0  0  0  0
    4.0522   -1.4329    0.0000 H   0  0  0  0  0  0  0  0  0  0  0  0
    3.2076    1.7249    0.0000 H   0  0  0  0  0  0  0  0  0  0  0  0
    7.4033    3.1013    0.0000 H   0  0  0  0  0  0  0  0  0  0  0  0
    5.5541    3.6479    0.0000 H   0  0  0  0  0  0  0  0  0  0  0  0
    8.6004    0.6853    0.0000 H   0  0  0  0  0  0  0  0  0  0  0  0
    9.5681    2.2225    0.0000 H   0  0  0  0  0  0  0  0  0  0  0  0
    4.2914    5.1760    0.0000 H   0  0  0  0  0  0  0  0  0  0  0  0
    1.6274    6.5501    0.0000 H   0  0  0  0  0  0  0  0  0  0  0  0
   -0.9086    4.2126    0.0000 H   0  0  0  0  0  0  0  0  0  0  0  0
    1.9748    0.9226    0.0000 H   0  0  0  0  0  0  0  0  0  0  0  0
    0.2358    1.3230    0.0000 H   0  0  0  0  0  0  0  0  0  0  0  0
    4.2395    2.1243    0.0000 H   0  0  0  0  0  0  0  0  0  0  0  0
    4.0678    0.1781    0.0000 H   0  0  0  0  0  0  0  0  0  0  0  0
   -1.7926    3.8276    0.0000 H   0  0  0  0  0  0  0  0  0  0  0  0
   -4.4152    4.1040    0.0000 H   0  0  0  0  0  0  0  0  0  0  0  0
   -2.4905    4.2228    0.0000 H   0  0  0  0  0  0  0  0  0  0  0  0
   -6.1324    2.2002    0.0000 H   0  0  0  0  0  0  0  0  0  0  0  0
   -5.2313    3.5632    0.0000 H   0  0  0  0  0  0  0  0  0  0  0  0
   -1.8544   -0.6463    0.0000 H   0  0  0  0  0  0  0  0  0  0  0  0
   -0.4566    1.0215    0.0000 H   0  0  0  0  0  0  0  0  0  0  0  0
   -1.0330   -0.3386    0.0000 H   0  0  0  0  0  0  0  0  0  0  0  0
   -2.5059   -2.8502    0.0000 H   0  0  0  0  0  0  0  0  0  0  0  0
   -1.6048   -1.4872    0.0000 H   0  0  0  0  0  0  0  0  0  0  0  0
   -4.9283   -3.6897    0.0000 H   0  0  0  0  0  0  0  0  0  0  0  0
   -3.3220   -3.3910    0.0000 H   0  0  0  0  0  0  0  0  0  0  0  0
   -5.6055   -3.1322    0.0000 H   0  0  0  0  0  0  0  0  0  0  0  0
   -5.8828    1.3593    0.0000 H   0  0  0  0  0  0  0  0  0  0  0  0
   -8.0260    1.7360    0.0000 H   0  0  0  0  0  0  0  0  0  0  0  0
   -6.5600    1.9169    0.0000 H   0  0  0  0  0  0  0  0  0  0  0  0
   -9.8359    0.0770    0.0000 H   0  0  0  0  0  0  0  0  0  0  0  0
   -5.7307   -4.3726    0.0000 H   0  0  0  0  0  0  0  0  0  0  0  0
   -7.0767   -5.4444    0.0000 H   0  0  0  0  0  0  0  0  0  0  0  0
   -8.2468   -5.6409    0.0000 H   0  0  0  0  0  0  0  0  0  0  0  0
  -10.0438   -4.7462    0.0000 H   0  0  0  0  0  0  0  0  0  0  0  0
  -10.5922   -3.6942    0.0000 H   0  0  0  0  0  0  0  0  0  0  0  0
  -12.5990   -3.0666    0.0000 H   0  0  0  0  0  0  0  0  0  0  0  0
   -9.5981    1.2084    0.0000 H   0  0  0  0  0  0  0  0  0  0  0  0
   -8.4314   -0.4251    0.0000 H   0  0  0  0  0  0  0  0  0  0  0  0
   -6.3052    0.2220    0.0000 H   0  0  0  0  0  0  0  0  0  0  0  0
   -9.1719    0.1347    0.0000 H   0  0  0  0  0  0  0  0  0  0  0  0
  -10.2209   -2.6759    0.0000 H   0  0  0  0  0  0  0  0  0  0  0  0
  -11.1017   -0.7461    0.0000 H   0  0  0  0  0  0  0  0  0  0  0  0
   -8.2445    2.3833    0.0000 H   0  0  0  0  0  0  0  0  0  0  0  0
   -1.9709    0.8045    0.0000 H   0  0  0  0  0  0  0  0  0  0  0  0
   -3.4341    3.0124    0.0000 H   0  0  0  0  0  0  0  0  0  0  0  0
   -1.8759    2.0208    0.0000 H   0  0  0  0  0  0  0  0  0  0  0  0
    2.6480    7.2538    0.0000 H   0  0  0  0  0  0  0  0  0  0  0  0
    4.4515    4.8634    0.0000 H   0  0  0  0  0  0  0  0  0  0  0  0
    4.7270    6.8320    0.0000 H   0  0  0  0  0  0  0  0  0  0  0  0
    4.5262   -2.5785    0.0000 H   0  0  0  0  0  0  0  0  0  0  0  0
    7.2767   -1.3806    0.0000 H   0  0  0  0  0  0  0  0  0  0  0  0
    6.5004   -3.3548    0.0000 H   0  0  0  0  0  0  0  0  0  0  0  0
   13.3270    0.1521    0.0000 H   0  0  0  0  0  0  0  0  0  0  0  0
   13.5916   -1.4076    0.0000 H   0  0  0  0  0  0  0  0  0  0  0  0
  1  2  1  0
  1 56  1  0
  1 57  1  0
  1 58  1  0
  2  3  1  0
  2  7  1  0
  2 59  1  6
  3  4  1  0
  3 60  1  1
  3 55  1  0
  4  5  1  0
  4 61  1  1
  4 54  1  0
  5  6  1  0
  5 62  1  0
  5 63  1  0
  6  7  1  0
  6  8  1  0
  6 64  1  6
  8  9  1  0
  9 10  1  0
  9 14  1  0
  9 65  1  1
 10 11  1  0
 10 66  1  6
 10 53  1  0
 11 12  1  0
 12 13  1  0
 12 67  1  6
 12 16  1  0
 13 14  1  0
 13 68  1  0
 13 69  1  0
 14 70  1  1
 14 15  1  0
 15 71  1  0
 16 17  1  0
 17 18  1  0
 17 22  1  0
 17 72  1  6
 18 19  1  0
 18 73  1  1
 18 52  1  0
 19 20  1  0
 20 21  1  0
 20 74  1  1
 20 24  1  0
 21 22  1  0
 21 75  1  0
 21 76  1  0
 22 77  1  6
 22 23  1  0
 23 78  1  0
 25 26  1  0
 25 30  1  0
 25 79  1  1
 25 24  1  0
 26 27  1  0
 26 80  1  0
 26 81  1  0
 27 28  1  0
 27 82  1  0
 27 83  1  0
 28 29  1  0
 28 34  1  0
 28 51  1  1
 29 30  1  0
 29 31  1  0
 29 84  1  6
 30 85  1  0
 30 86  1  0
 31 32  1  0
 31 87  1  0
 31 88  1  0
 32 33  1  0
 32 89  1  0
 32 90  1  0
 33 34  1  0
 33 38  1  0
 33 91  1  1
 34 35  1  0
 34 92  1  6
 35 36  1  0
 35 93  1  0
 35 94  1  0
 36 37  1  0
 36 95  1  1
 36 50  1  0
 37 38  1  0
 37 41  1  0
 37 49  1  6
 38 39  1  0
 38 48  1  6
 39 40  1  0
 39 96  1  0
 39 97  1  0
 40 41  1  0
 40 98  1  0
 40 99  1  0
 41100  1  6
 41 42  1  0
 42 43  2  0
 42 47  1  0
 43 44  1  0
 43101  1  0
 44 45  2  0
 44 46  1  0
 46 47  1  0
 47102  1  0
 47103  1  0
 48104  1  0
 49105  1  0
 49106  1  0
 49107  1  0
 50108  1  0
 51109  1  0
 51110  1  0
 51111  1  0
 52112  1  0
 52113  1  0
 52114  1  0
 53115  1  0
 53116  1  0
 53117  1  0
 54118  1  0
 55119  1  0
M  END
$$$$

     RDKit          2D

 61 65  0  0  0  0  0  0  0  0999 V2000
    0.0249   -5.5291    0.0000 C   0  0  0  0  0  0  0  0  0  0  0  0
   -0.1278   -4.0369    0.0000 C   0  0  0  0  0  0  0  0  0  0  0  0
   -1.4965   -3.4231    0.0000 O   0  0  0  0  0  0  0  0  0  0  0  0
    1.0881   -3.1585    0.0000 S   0  0  0  0  0  0  0  0  0  0  0  0
    0.9353   -1.6663    0.0000 C   0  0  0  0  0  0  0  0  0  0  0  0
    2.4314   -1.7750    0.0000 C   0  0  0  0  0  0  0  0  0  0  0  0
    3.2735   -0.5337    0.0000 C   0  0  0  0  0  0  0  0  0  0  0  0
    4.7696   -0.6424    0.0000 C   0  0  0  0  0  0  0  0  0  0  0  0
    5.6117    0.5989    0.0000 C   0  0  0  0  0  0  0  0  0  0  0  0
    7.1078    0.4902    0.0000 O   0  0  0  0  0  0  0  0  0  0  0  0
    4.9578    1.9489    0.0000 C   0  0  0  0  0  0  0  0  0  0  0  0
    3.4617    2.0575    0.0000 C   0  0  0  0  0  0  0  0  0  0  0  0
    2.6196    0.8163    0.0000 C   0  0  0  0  0  0  0  0  0  0  0  0
    1.1235    0.9249    0.0000 C   0  0  0  0  0  0  0  0  0  0  0  0
    0.2814   -0.3164    0.0000 C   0  0  0  0  0  0  0  0  0  0  0  0
   -1.2147   -0.2077    0.0000 C   0  0  0  0  0  0  0  0  0  0  0  0
   -2.2965   -1.2467    0.0000 C   0  0  0  0  0  0  0  0  0  0  0  0
   -3.6190   -0.5390    0.0000 C   0  0  0  0  0  0  0  0  0  0  0  0
   -3.3545    0.9375    0.0000 C   0  0  0  0  0  0  0  0  0  0  0  0
   -1.8686    1.1423    0.0000 C   0  0  0  0  0  0  0  0  0  0  0  0
   -1.0264    2.3836    0.0000 C   0  0  0  0  0  0  0  0  0  0  0  0
    0.4696    2.2749    0.0000 C   0  0  0  0  0  0  0  0  0  0  0  0
   -2.2859   -0.2985    0.0000 C   0  0  0  0  0  0  0  0  0  0  0  0
   -4.8405    0.7328    0.0000 C   0  0  0  0  0  0  0  0  0  0  0  0
   -5.4944    2.0828    0.0000 C   0  0  0  0  0  0  0  0  0  0  0  0
   -4.4126    3.1218    0.0000 C   0  0  0  0  0  0  0  0  0  0  0  0
   -4.6173    4.6078    0.0000 O   0  0  0  0  0  0  0  0  0  0  0  0
   -3.0901    2.4140    0.0000 O   0  0  0  0  0  0  0  0  0  0  0  0
    4.1156    0.7076    0.0000 C   0  0  0  0  0  0  0  0  0  0  0  0
   -1.4673   -5.6819    0.0000 H   0  0  0  0  0  0  0  0  0  0  0  0
    1.5171   -5.3764    0.0000 H   0  0  0  0  0  0  0  0  0  0  0  0
    0.1777   -7.0213    0.0000 H   0  0  0  0  0  0  0  0  0  0  0  0
   -0.2356   -2.3382    0.0000 H   0  0  0  0  0  0  0  0  0  0  0  0
    2.0645   -3.2295    0.0000 H   0  0  0  0  0  0  0  0  0  0  0  0
    3.8000   -2.3888    0.0000 H   0  0  0  0  0  0  0  0  0  0  0  0
    5.4235   -1.9923    0.0000 H   0  0  0  0  0  0  0  0  0  0  0  0
    4.8050    3.4411    0.0000 H   0  0  0  0  0  0  0  0  0  0  0  0
    6.4008    2.3584    0.0000 H   0  0  0  0  0  0  0  0  0  0  0  0
    2.6019    2.7331    0.0000 H   0  0  0  0  0  0  0  0  0  0  0  0
    3.8285    3.5120    0.0000 H   0  0  0  0  0  0  0  0  0  0  0  0
    1.8815    2.0421    0.0000 H   0  0  0  0  0  0  0  0  0  0  0  0
   -0.3725    1.0336    0.0000 H   0  0  0  0  0  0  0  0  0  0  0  0
   -0.8022   -1.3505    0.0000 H   0  0  0  0  0  0  0  0  0  0  0  0
   -1.4182   -2.4627    0.0000 H   0  0  0  0  0  0  0  0  0  0  0  0
   -2.9811   -2.5814    0.0000 H   0  0  0  0  0  0  0  0  0  0  0  0
   -4.1847   -1.9282    0.0000 H   0  0  0  0  0  0  0  0  0  0  0  0
   -5.0999   -0.3004    0.0000 H   0  0  0  0  0  0  0  0  0  0  0  0
   -0.6596    3.8380    0.0000 H   0  0  0  0  0  0  0  0  0  0  0  0
   -2.2059    3.3103    0.0000 H   0  0  0  0  0  0  0  0  0  0  0  0
    1.5234    2.8796    0.0000 H   0  0  0  0  0  0  0  0  0  0  0  0
    0.3169    3.7671    0.0000 H   0  0  0  0  0  0  0  0  0  0  0  0
   -1.5967   -0.6990    0.0000 H   0  0  0  0  0  0  0  0  0  0  0  0
   -3.7849   -0.2422    0.0000 H   0  0  0  0  0  0  0  0  0  0  0  0
   -3.1920   -1.4939    0.0000 H   0  0  0  0  0  0  0  0  0  0  0  0
   -4.6618   -0.7565    0.0000 H   0  0  0  0  0  0  0  0  0  0  0  0
   -6.2514    0.2236    0.0000 H   0  0  0  0  0  0  0  0  0  0  0  0
   -6.7686    1.2913    0.0000 H   0  0  0  0  0  0  0  0  0  0  0  0
   -6.4147    3.2673    0.0000 H   0  0  0  0  0  0  0  0  0  0  0  0
    4.7222   -0.6643    0.0000 H   0  0  0  0  0  0  0  0  0  0  0  0
    4.9141    1.9774    0.0000 H   0  0  0  0  0  0  0  0  0  0  0  0
    5.5935    0.9641    0.0000 H   0  0  0  0  0  0  0  0  0  0  0  0
  1  2  1  0
  1 30  1  0
  1 31  1  0
  1 32  1  0
  2  3  2  0
  2  4  1  0
  4  5  1  0
  5  6  1  0
  5 15  1  0
  5 33  1  6
  6  7  1  0
  6 34  1  0
  6 35  1  0
  7  8  2  0
  7 13  1  0
  8  9  1  0
  8 36  1  0
  9 10  2  0
  9 11  1  0
 11 12  1  0
 11 37  1  0
 11 38  1  0
 12 13  1  0
 12 39  1  0
 12 40  1  0
 13 14  1  0
 13 29  1  6
 14 15  1  0
 14 22  1  0
 14 41  1  1
 15 16  1  0
 15 42  1  6
 16 17  1  0
 16 20  1  0
 16 43  1  1
 17 18  1  0
 17 44  1  0
 17 45  1  0
 18 19  1  0
 18 46  1  0
 18 47  1  0
 19 20  1  0
 19 24  1  0
 19 28  1  6
 20 21  1  0
 20 23  1  6
 21 22  1  0
 21 48  1  0
 21 49  1  0
 22 50  1  0
 22 51  1  0
 23 52  1  0
 23 53  1  0
 23 54  1  0
 24 25  1  0
 24 55  1  0
 24 56  1  0
 25 26  1  0
 25 57  1  0
 25 58  1  0
 26 27  2  0
 26 28  1  0
 29 59  1  0
 29 60  1  0
 29 61  1  0
M  END
$$$$

     RDKit          2D

 33 34  0  0  0  0  0  0  0  0999 V2000
    5.6088   -0.9649    0.0000 C   0  0  0  0  0  0  0  0  0  0  0  0
    4.2224   -1.5375    0.0000 C   0  0  0  0  0  0  0  0  0  0  0  0
    3.0333   -0.6231    0.0000 C   0  0  0  0  0  0  0  0  0  0  0  0
    1.8442    0.2912    0.0000 O   0  0  0  0  0  0  0  0  0  0  0  0
    0.4578   -0.2813    0.0000 C   0  0  0  0  0  0  0  0  0  0  0  0
   -0.9286   -0.8539    0.0000 C   0  0  0  0  0  0  0  0  0  0  0  0
   -2.3150   -1.4265    0.0000 N   0  0  0  0  0  0  0  0  0  0  0  0
   -2.6667   -2.8847    0.0000 C   0  0  0  0  0  0  0  0  0  0  0  0
   -4.1622   -3.0008    0.0000 C   0  0  0  0  0  0  0  0  0  0  0  0
   -4.7348   -1.6144    0.0000 N   0  0  0  0  0  0  0  0  0  0  0  0
   -3.5931   -0.6414    0.0000 C   0  0  0  0  0  0  0  0  0  0  0  0
   -0.1148    1.1051    0.0000 C   0  0  0  0  0  0  0  0  0  0  0  0
   -1.6017    1.3024    0.0000 C   0  0  0  0  0  0  0  0  0  0  0  0
   -2.1743    2.6888    0.0000 C   0  0  0  0  0  0  0  0  0  0  0  0
   -1.2599    3.8779    0.0000 C   0  0  0  0  0  0  0  0  0  0  0  0
    0.2271    3.6806    0.0000 C   0  0  0  0  0  0  0  0  0  0  0  0
    0.7996    2.2942    0.0000 C   0  0  0  0  0  0  0  0  0  0  0  0
   -1.8325    5.2643    0.0000 Cl  0  0  0  0  0  0  0  0  0  0  0  0
   -2.1416    0.6003    0.0000 Cl  0  0  0  0  0  0  0  0  0  0  0  0
    6.7979   -1.8793    0.0000 H   0  0  0  0  0  0  0  0  0  0  0  0
    5.8062    0.5220    0.0000 H   0  0  0  0  0  0  0  0  0  0  0  0
    4.0251   -3.0245    0.0000 H   0  0  0  0  0  0  0  0  0  0  0  0
    3.9477    0.5659    0.0000 H   0  0  0  0  0  0  0  0  0  0  0  0
    2.1189   -1.8122    0.0000 H   0  0  0  0  0  0  0  0  0  0  0  0
    1.0304   -1.6678    0.0000 H   0  0  0  0  0  0  0  0  0  0  0  0
   -1.4547   -0.1414    0.0000 H   0  0  0  0  0  0  0  0  0  0  0  0
   -0.3560   -2.2403    0.0000 H   0  0  0  0  0  0  0  0  0  0  0  0
   -1.6937   -4.0263    0.0000 H   0  0  0  0  0  0  0  0  0  0  0  0
   -4.9473   -4.2790    0.0000 H   0  0  0  0  0  0  0  0  0  0  0  0
   -3.7093    0.8541    0.0000 H   0  0  0  0  0  0  0  0  0  0  0  0
   -3.6613    2.8862    0.0000 H   0  0  0  0  0  0  0  0  0  0  0  0
    1.1414    4.8696    0.0000 H   0  0  0  0  0  0  0  0  0  0  0  0
    2.2866    2.0968    0.0000 H   0  0  0  0  0  0  0  0  0  0  0  0
  1  2  2  0
  1 20  1  0
  1 21  1  0
  2  3  1  0
  2 22  1  0
  3  4  1  0
  3 23  1  0
  3 24  1  0
  4  5  1  0
  5  6  1  0
  5 12  1  0
  5 25  1  6
  6  7  1  0
  6 26  1  0
  6 27  1  0
  7  8  1  0
  7 11  1  0
  8  9  2  0
  8 28  1  0
  9 10  1  0
  9 29  1  0
 10 11  2  0
 11 30  1  0
 12 13  2  0
 12 17  1  0
 13 14  1  0
 13 19  1  0
 14 15  2  0
 14 31  1  0
 15 16  1  0
 15 18  1  0
 16 17  2  0
 16 32  1  0
 17 33  1  0
M  END
$$$$

     RDKit          2D

 32 32  0  0  0  0  0  0  0  0999 V2000
    4.6606   -1.5734    0.0000 C   0  0  0  0  0  0  0  0  0  0  0  0
    3.3153   -0.9099    0.0000 C   0  0  0  0  0  0  0  0  0  0  0  0
    3.2173    0.5869    0.0000 C   0  0  0  0  0  0  0  0  0  0  0  0
    1.8720    1.2504    0.0000 C   0  0  0  0  0  0  0  0  0  0  0  0
    0.6248    0.4171    0.0000 C   0  0  0  0  0  0  0  0  0  0  0  0
    0.7228   -1.0797    0.0000 C   0  0  0  0  0  0  0  0  0  0  0  0
    2.0681   -1.7432    0.0000 C   0  0  0  0  0  0  0  0  0  0  0  0
   -0.7205    1.0805    0.0000 N   0  0  0  0  0  0  0  0  0  0  0  0
   -0.8186    2.5773    0.0000 S   0  0  0  0  0  0  0  0  0  0  0  0
    0.4286    3.4106    0.0000 C   0  0  0  0  0  0  0  0  0  0  0  0
    1.6759    4.2440    0.0000 F   0  0  0  0  0  0  0  0  0  0  0  0
    1.0711    2.6651    0.0000 Cl  0  0  0  0  0  0  0  0  0  0  0  0
   -0.4047    4.6579    0.0000 Cl  0  0  0  0  0  0  0  0  0  0  0  0
   -1.9677    0.2472    0.0000 S   0  0  0  0  0  0  0  0  0  0  0  0
   -2.8011    1.4944    0.0000 O   0  0  0  0  0  0  0  0  0  0  0  0
   -1.1344   -1.0000    0.0000 O   0  0  0  0  0  0  0  0  0  0  0  0
   -3.2150   -0.5861    0.0000 N   0  0  0  0  0  0  0  0  0  0  0  0
   -3.1169   -2.0829    0.0000 C   0  0  0  0  0  0  0  0  0  0  0  0
   -4.5603    0.0774    0.0000 C   0  0  0  0  0  0  0  0  0  0  0  0
    5.3241   -0.2281    0.0000 H   0  0  0  0  0  0  0  0  0  0  0  0
    3.9972   -2.9187    0.0000 H   0  0  0  0  0  0  0  0  0  0  0  0
    6.0059   -2.2368    0.0000 H   0  0  0  0  0  0  0  0  0  0  0  0
    4.4645    1.4202    0.0000 H   0  0  0  0  0  0  0  0  0  0  0  0
    1.9278    2.2329    0.0000 H   0  0  0  0  0  0  0  0  0  0  0  0
   -0.5244   -1.9131    0.0000 H   0  0  0  0  0  0  0  0  0  0  0  0
    2.1662   -3.2400    0.0000 H   0  0  0  0  0  0  0  0  0  0  0  0
   -4.6137   -2.1810    0.0000 H   0  0  0  0  0  0  0  0  0  0  0  0
   -1.6201   -1.9848    0.0000 H   0  0  0  0  0  0  0  0  0  0  0  0
   -3.0189   -3.5797    0.0000 H   0  0  0  0  0  0  0  0  0  0  0  0
   -5.2237   -1.2679    0.0000 H   0  0  0  0  0  0  0  0  0  0  0  0
   -3.8968    1.4227    0.0000 H   0  0  0  0  0  0  0  0  0  0  0  0
   -5.9056    0.7408    0.0000 H   0  0  0  0  0  0  0  0  0  0  0  0
  1  2  1  0
  1 20  1  0
  1 21  1  0
  1 22  1  0
  2  3  2  0
  2  7  1  0
  3  4  1  0
  3 23  1  0
  4  5  2  0
  4 24  1  0
  5  6  1  0
  5  8  1  0
  6  7  2  0
  6 25  1  0
  7 26  1  0
  8  9  1  0
  8 14  1  0
  9 10  1  0
 10 11  1  0
 10 12  1  0
 10 13  1  0
 14 15  2  0
 14 16  2  0
 14 17  1  0
 17 18  1  0
 17 19  1  0
 18 27  1  0
 18 28  1  0
 18 29  1  0
 19 30  1  0
 19 31  1  0
 19 32  1  0
M  END
$$$$

     RDKit          2D

 51 55  0  0  1  0  0  0  0  0999 V2000
    4.7589   -3.3823    0.0000 C   0  0  0  0  0  0  0  0  0  0  0  0
    3.6435   -2.3794    0.0000 N   0  0  0  0  0  0  0  0  0  0  0  0
    4.0632   -0.9393    0.0000 C   0  0  0  0  0  0  0  0  0  0  0  0
    5.5571   -0.8039    0.0000 C   0  0  0  0  0  0  0  0  0  0  0  0
    6.1867    0.5576    0.0000 C   0  0  0  0  0  0  0  0  0  0  0  0
    5.3225    1.7836    0.0000 C   0  0  0  0  0  0  0  0  0  0  0  0
    3.8286    1.6482    0.0000 C   0  0  0  0  0  0  0  0  0  0  0  0
    3.1990    0.2867    0.0000 C   0  0  0  0  0  0  0  0  0  0  0  0
    1.7016    0.3754    0.0000 C   0  0  0  0  0  0  0  0  0  0  0  0
    0.6986   -0.7399    0.0000 N   0  0  0  0  0  0  0  0  0  0  0  0
    0.9453   -2.2195    0.0000 C   0  0  0  0  0  0  0  0  0  0  0  0
    2.2559   -2.9491    0.0000 C   0  0  0  0  0  0  0  0  0  0  0  0
    2.1672   -4.4465    0.0000 O   0  0  0  0  0  0  0  0  0  0  0  0
   -0.5521   -2.1308    0.0000 N   0  0  0  0  0  0  0  0  0  0  0  0
   -1.2239   -0.7897    0.0000 C   0  0  0  0  0  0  0  0  0  0  0  0
   -0.3984    0.4627    0.0000 O   0  0  0  0  0  0  0  0  0  0  0  0
   -2.7213   -0.7009    0.0000 C   0  0  0  0  0  0  0  0  0  0  0  0
   -3.6732   -1.8602    0.0000 C   0  0  0  0  0  0  0  0  0  0  0  0
   -5.0699   -1.3131    0.0000 C   0  0  0  0  0  0  0  0  0  0  0  0
   -6.4110   -1.9850    0.0000 C   0  0  0  0  0  0  0  0  0  0  0  0
   -7.6634   -1.1594    0.0000 C   0  0  0  0  0  0  0  0  0  0  0  0
   -7.5747    0.3379    0.0000 C   0  0  0  0  0  0  0  0  0  0  0  0
   -6.2335    1.0098    0.0000 C   0  0  0  0  0  0  0  0  0  0  0  0
   -4.9811    0.1843    0.0000 C   0  0  0  0  0  0  0  0  0  0  0  0
   -3.5296    0.5626    0.0000 N   0  0  0  0  0  0  0  0  0  0  0  0
    1.1318    1.7630    0.0000 C   0  0  0  0  0  0  0  0  0  0  0  0
    2.0486    2.9502    0.0000 C   0  0  0  0  0  0  0  0  0  0  0  0
    1.4789    4.3378    0.0000 C   0  0  0  0  0  0  0  0  0  0  0  0
   -0.0077    4.5382    0.0000 C   0  0  0  0  0  0  0  0  0  0  0  0
   -0.9245    3.3510    0.0000 C   0  0  0  0  0  0  0  0  0  0  0  0
   -0.3547    1.9634    0.0000 C   0  0  0  0  0  0  0  0  0  0  0  0
    3.7559   -4.4977    0.0000 H   0  0  0  0  0  0  0  0  0  0  0  0
    5.7772   -2.4960    0.0000 H   0  0  0  0  0  0  0  0  0  0  0  0
    5.8742   -4.3853    0.0000 H   0  0  0  0  0  0  0  0  0  0  0  0
    6.4636   -1.8042    0.0000 H   0  0  0  0  0  0  0  0  0  0  0  0
    7.6806    0.6930    0.0000 H   0  0  0  0  0  0  0  0  0  0  0  0
    5.9521    3.1451    0.0000 H   0  0  0  0  0  0  0  0  0  0  0  0
    3.4522    2.3508    0.0000 H   0  0  0  0  0  0  0  0  0  0  0  0
    0.5256   -3.6596    0.0000 H   0  0  0  0  0  0  0  0  0  0  0  0
   -1.3776   -3.3832    0.0000 H   0  0  0  0  0  0  0  0  0  0  0  0
   -3.2949   -3.3117    0.0000 H   0  0  0  0  0  0  0  0  0  0  0  0
   -6.4997   -3.4823    0.0000 H   0  0  0  0  0  0  0  0  0  0  0  0
   -9.0045   -1.8313    0.0000 H   0  0  0  0  0  0  0  0  0  0  0  0
   -8.8271    1.1635    0.0000 H   0  0  0  0  0  0  0  0  0  0  0  0
   -6.1448    2.5072    0.0000 H   0  0  0  0  0  0  0  0  0  0  0  0
   -2.9825    1.9593    0.0000 H   0  0  0  0  0  0  0  0  0  0  0  0
    2.8457    2.9408    0.0000 H   0  0  0  0  0  0  0  0  0  0  0  0
    2.3957    5.5250    0.0000 H   0  0  0  0  0  0  0  0  0  0  0  0
   -0.5774    5.9258    0.0000 H   0  0  0  0  0  0  0  0  0  0  0  0
   -2.4110    3.5513    0.0000 H   0  0  0  0  0  0  0  0  0  0  0  0
   -1.2715    0.7762    0.0000 H   0  0  0  0  0  0  0  0  0  0  0  0
  1  2  1  0
  1 32  1  0
  1 33  1  0
  1 34  1  0
  2  3  1  0
  2 12  1  0
  3  4  2  0
  3  8  1  0
  4  5  1  0
  4 35  1  0
  5  6  2  0
  5 36  1  0
  6  7  1  0
  6 37  1  0
  7  8  2  0
  7 38  1  0
  8  9  1  0
  9 10  2  0
  9 26  1  0
 10 11  1  0
 11 12  1  0
 11 14  1  0
 11 39  1  6
 12 13  2  0
 14 15  1  0
 14 40  1  0
 15 16  2  0
 15 17  1  0
 17 18  2  0
 17 25  1  0
 18 19  1  0
 18 41  1  0
 19 20  2  0
 19 24  1  0
 20 21  1  0
 20 42  1  0
 21 22  2  0
 21 43  1  0
 22 23  1  0
 22 44  1  0
 23 24  2  0
 23 45  1  0
 24 25  1  0
 25 46  1  0
 26 27  2  0
 26 31  1  0
 27 28  1  0
 27 47  1  0
 28 29  2  0
 28 48  1  0
 29 30  1  0
 29 49  1  0
 30 31  2  0
 30 50  1  0
 31 51  1  0
M  END
$$$$

     RDKit          2D

 18 19  0  0  0  0  0  0  0  0999 V2000
   -2.5981   -0.7500    0.0000 C   0  0  0  0  0  0  0  0  0  0  0  0
   -2.5981    0.7500    0.0000 C   0  0  0  0  0  0  0  0  0  0  0  0
   -1.2990    1.5000    0.0000 C   0  0  0  0  0  0  0  0  0  0  0  0
   -0.0000    0.7500    0.0000 C   0  0  0  0  0  0  0  0  0  0  0  0
    0.0000   -0.7500    0.0000 C   0  0  0  0  0  0  0  0  0  0  0  0
   -1.2990   -1.5000    0.0000 C   0  0  0  0  0  0  0  0  0  0  0  0
    1.2990   -1.5000    0.0000 C   0  0  0  0  0  0  0  0  0  0  0  0
    1.2990   -3.0000    0.0000 O   0  0  0  0  0  0  0  0  0  0  0  0
    2.5981   -0.7500    0.0000 C   0  0  0  0  0  0  0  0  0  0  0  0
    2.5981    0.7500    0.0000 C   0  0  0  0  0  0  0  0  0  0  0  0
    1.2990    1.5000    0.0000 C   0  0  0  0  0  0  0  0  0  0  0  0
    1.2990    3.0000    0.0000 O   0  0  0  0  0  0  0  0  0  0  0  0
    3.8971    1.5000    0.0000 Cl  0  0  0  0  0  0  0  0  0  0  0  0
    3.8971   -1.5000    0.0000 Cl  0  0  0  0  0  0  0  0  0  0  0  0
   -3.8971   -1.5000    0.0000 H   0  0  0  0  0  0  0  0  0  0  0  0
   -3.8971    1.5000    0.0000 H   0  0  0  0  0  0  0  0  0  0  0  0
   -1.2990    3.0000    0.0000 H   0  0  0  0  0  0  0  0  0  0  0  0
   -1.2990   -3.0000    0.0000 H   0  0  0  0  0  0  0  0  0  0  0  0
  1  2  2  0
  1  6  1  0
  1 15  1  0
  2  3  1  0
  2 16  1  0
  3  4  2  0
  3 17  1  0
  4  5  1  0
  4 11  1  0
  5  6  2  0
  5  7  1  0
  6 18  1  0
  7  8  2  0
  7  9  1  0
  9 10  2  0
  9 14  1  0
 10 11  1  0
 10 13  1  0
 11 12  2  0
M  END
$$$$

     RDKit          2D

 40 40  0  0  0  0  0  0  0  0999 V2000
    5.6088   -0.9649    0.0000 C   0  0  0  0  0  0  0  0  0  0  0  0
    4.2224   -1.5375    0.0000 C   0  0  0  0  0  0  0  0  0  0  0  0
    3.0333   -0.6231    0.0000 C   0  0  0  0  0  0  0  0  0  0  0  0
    1.8442    0.2912    0.0000 O   0  0  0  0  0  0  0  0  0  0  0  0
    0.4578   -0.2813    0.0000 C   0  0  0  0  0  0  0  0  0  0  0  0
   -0.9286   -0.8539    0.0000 C   0  0  0  0  0  0  0  0  0  0  0  0
   -2.3150   -1.4265    0.0000 N   0  0  0  0  0  0  0  0  0  0  0  0
   -2.6667   -2.8847    0.0000 C   0  0  0  0  0  0  0  0  0  0  0  0
   -4.1622   -3.0008    0.0000 C   0  0  0  0  0  0  0  0  0  0  0  0
   -4.7348   -1.6144    0.0000 N   0  0  0  0  0  0  0  0  0  0  0  0
   -3.5931   -0.6414    0.0000 C   0  0  0  0  0  0  0  0  0  0  0  0
   -0.1148    1.1051    0.0000 C   0  0  0  0  0  0  0  0  0  0  0  0
   -1.6017    1.3024    0.0000 C   0  0  0  0  0  0  0  0  0  0  0  0
   -2.1743    2.6888    0.0000 C   0  0  0  0  0  0  0  0  0  0  0  0
   -1.2599    3.8779    0.0000 C   0  0  0  0  0  0  0  0  0  0  0  0
    0.2271    3.6806    0.0000 C   0  0  0  0  0  0  0  0  0  0  0  0
    0.7996    2.2942    0.0000 C   0  0  0  0  0  0  0  0  0  0  0  0
   -1.8325    5.2643    0.0000 Cl  0  0  0  0  0  0  0  0  0  0  0  0
   -2.1416    0.6003    0.0000 Cl  0  0  0  0  0  0  0  0  0  0  0  0
    1.5000    7.7643    0.0000 O   0  0  0  0  0  0  0  0  0  0  0  0
   -0.0000    7.7643    0.0000 S   0  0  0  0  0  0  0  0  0  0  0  0
   -0.0000    9.2643    0.0000 O   0  0  0  0  0  0  0  0  0  0  0  0
   -0.0000    6.2643    0.0000 O   0  0  0  0  0  0  0  0  0  0  0  0
   -1.5000    7.7643    0.0000 O   0  0  0  0  0  0  0  0  0  0  0  0
    6.7979   -1.8793    0.0000 H   0  0  0  0  0  0  0  0  0  0  0  0
    5.8062    0.5220    0.0000 H   0  0  0  0  0  0  0  0  0  0  0  0
    4.0251   -3.0245    0.0000 H   0  0  0  0  0  0  0  0  0  0  0  0
    3.9477    0.5659    0.0000 H   0  0  0  0  0  0  0  0  0  0  0  0
    2.1189   -1.8122    0.0000 H   0  0  0  0  0  0  0  0  0  0  0  0
    1.0304   -1.6678    0.0000 H   0  0  0  0  0  0  0  0  0  0  0  0
   -1.4547   -0.1414    0.0000 H   0  0  0  0  0  0  0  0  0  0  0  0
   -0.3560   -2.2403    0.0000 H   0  0  0  0  0  0  0  0  0  0  0  0
   -1.6937   -4.0263    0.0000 H   0  0  0  0  0  0  0  0  0  0  0  0
   -4.9473   -4.2790    0.0000 H   0  0  0  0  0  0  0  0  0  0  0  0
   -3.7093    0.8541    0.0000 H   0  0  0  0  0  0  0  0  0  0  0  0
   -3.6613    2.8862    0.0000 H   0  0  0  0  0  0  0  0  0  0  0  0
    1.1414    4.8696    0.0000 H   0  0  0  0  0  0  0  0  0  0  0  0
    2.2866    2.0968    0.0000 H   0  0  0  0  0  0  0  0  0  0  0  0
    2.2500    6.4653    0.0000 H   0  0  0  0  0  0  0  0  0  0  0  0
   -2.2500    6.4653    0.0000 H   0  0  0  0  0  0  0  0  0  0  0  0
  1  2  2  0
  1 25  1  0
  1 26  1  0
  2  3  1  0
  2 27  1  0
  3  4  1  0
  3 28  1  0
  3 29  1  0
  4  5  1  0
  5  6  1  0
  5 12  1  0
  5 30  1  6
  6  7  1  0
  6 31  1  0
  6 32  1  0
  7  8  1  0
  7 11  1  0
  8  9  2  0
  8 33  1  0
  9 10  1  0
  9 34  1  0
 10 11  2  0
 11 35  1  0
 12 13  2  0
 12 17  1  0
 13 14  1  0
 13 19  1  0
 14 15  2  0
 14 36  1  0
 15 16  1  0
 15 18  1  0
 16 17  2  0
 16 37  1  0
 17 38  1  0
 20 21  1  0
 20 39  1  0
 21 22  2  0
 21 23  2  0
 21 24  1  0
 24 40  1  0
M  END
$$$$

     RDKit          2D

 52 51  0  0  0  0  0  0  0  0999 V2000
    7.9593   -0.2093    0.0000 C   0  0  0  0  0  0  0  0  0  0  0  0
    6.4609   -0.1405    0.0000 C   0  0  0  0  0  0  0  0  0  0  0  0
    4.9624   -0.0717    0.0000 C   0  0  0  0  0  0  0  0  0  0  0  0
    3.4640   -0.0028    0.0000 C   0  0  0  0  0  0  0  0  0  0  0  0
    1.9656    0.0660    0.0000 C   0  0  0  0  0  0  0  0  0  0  0  0
    0.4672    0.1348    0.0000 C   0  0  0  0  0  0  0  0  0  0  0  0
   -1.0312    0.2037    0.0000 C   0  0  0  0  0  0  0  0  0  0  0  0
   -2.5297    0.2725    0.0000 C   0  0  0  0  0  0  0  0  0  0  0  0
   -4.0281    0.3413    0.0000 N   0  0  0  0  0  0  0  0  0  0  0  0
   -4.8531    1.5940    0.0000 C   0  0  0  0  0  0  0  0  0  0  0  0
   -6.2995    1.1965    0.0000 C   0  0  0  0  0  0  0  0  0  0  0  0
   -6.3683   -0.3020    0.0000 N   0  0  0  0  0  0  0  0  0  0  0  0
   -4.9645   -0.8305    0.0000 C   0  0  0  0  0  0  0  0  0  0  0  0
   -7.6210   -1.1270    0.0000 C   0  0  0  0  0  0  0  0  0  0  0  0
    2.5981    5.2969    0.0000 C   0  0  0  0  0  0  0  0  0  0  0  0
    1.8481    3.9978    0.0000 F   0  0  0  0  0  0  0  0  0  0  0  0
    3.3481    6.5959    0.0000 F   0  0  0  0  0  0  0  0  0  0  0  0
    3.8971    4.5469    0.0000 F   0  0  0  0  0  0  0  0  0  0  0  0
    1.2990    6.0469    0.0000 S   0  0  0  0  0  0  0  0  0  0  0  0
    2.0490    7.3459    0.0000 O   0  0  0  0  0  0  0  0  0  0  0  0
    0.5490    4.7478    0.0000 O   0  0  0  0  0  0  0  0  0  0  0  0
    0.0000    6.7969    0.0000 N   0  0  0  0  0  0  0  0  0  0  0  0
   -1.2990    6.0469    0.0000 S   0  0  0  0  0  0  0  0  0  0  0  0
   -0.5490    4.7478    0.0000 O   0  0  0  0  0  0  0  0  0  0  0  0
   -2.0490    7.3459    0.0000 O   0  0  0  0  0  0  0  0  0  0  0  0
   -2.5981    5.2969    0.0000 C   0  0  0  0  0  0  0  0  0  0  0  0
   -1.8481    3.9978    0.0000 F   0  0  0  0  0  0  0  0  0  0  0  0
   -3.3481    6.5959    0.0000 F   0  0  0  0  0  0  0  0  0  0  0  0
   -3.8971    4.5469    0.0000 F   0  0  0  0  0  0  0  0  0  0  0  0
    8.0281    1.2891    0.0000 H   0  0  0  0  0  0  0  0  0  0  0  0
    7.8905   -1.7077    0.0000 H   0  0  0  0  0  0  0  0  0  0  0  0
    9.4577   -0.2782    0.0000 H   0  0  0  0  0  0  0  0  0  0  0  0
    6.3920   -1.6389    0.0000 H   0  0  0  0  0  0  0  0  0  0  0  0
    6.5297    1.3579    0.0000 H   0  0  0  0  0  0  0  0  0  0  0  0
    5.0313    1.4268    0.0000 H   0  0  0  0  0  0  0  0  0  0  0  0
    4.8936   -1.5701    0.0000 H   0  0  0  0  0  0  0  0  0  0  0  0
    3.3952   -1.5013    0.0000 H   0  0  0  0  0  0  0  0  0  0  0  0
    3.5329    1.4956    0.0000 H   0  0  0  0  0  0  0  0  0  0  0  0
    2.0344    1.5644    0.0000 H   0  0  0  0  0  0  0  0  0  0  0  0
    1.8968   -1.4324    0.0000 H   0  0  0  0  0  0  0  0  0  0  0  0
    0.3984   -1.3636    0.0000 H   0  0  0  0  0  0  0  0  0  0  0  0
    0.5360    1.6333    0.0000 H   0  0  0  0  0  0  0  0  0  0  0  0
   -0.9624    1.7021    0.0000 H   0  0  0  0  0  0  0  0  0  0  0  0
   -1.1001   -1.2948    0.0000 H   0  0  0  0  0  0  0  0  0  0  0  0
   -2.5985   -1.2259    0.0000 H   0  0  0  0  0  0  0  0  0  0  0  0
   -2.4608    1.7709    0.0000 H   0  0  0  0  0  0  0  0  0  0  0  0
   -4.3246    2.9978    0.0000 H   0  0  0  0  0  0  0  0  0  0  0  0
   -7.4713    2.1329    0.0000 H   0  0  0  0  0  0  0  0  0  0  0  0
   -4.5669   -2.2768    0.0000 H   0  0  0  0  0  0  0  0  0  0  0  0
   -8.4461    0.1257    0.0000 H   0  0  0  0  0  0  0  0  0  0  0  0
   -6.7960   -2.3797    0.0000 H   0  0  0  0  0  0  0  0  0  0  0  0
   -8.8737   -1.9521    0.0000 H   0  0  0  0  0  0  0  0  0  0  0  0
  1  2  1  0
  1 30  1  0
  1 31  1  0
  1 32  1  0
  2  3  1  0
  2 33  1  0
  2 34  1  0
  3  4  1  0
  3 35  1  0
  3 36  1  0
  4  5  1  0
  4 37  1  0
  4 38  1  0
  5  6  1  0
  5 39  1  0
  5 40  1  0
  6  7  1  0
  6 41  1  0
  6 42  1  0
  7  8  1  0
  7 43  1  0
  7 44  1  0
  8  9  1  0
  8 45  1  0
  8 46  1  0
  9 10  1  0
  9 13  1  0
 10 11  2  0
 10 47  1  0
 11 12  1  0
 11 48  1  0
 12 13  2  0
 12 14  1  0
 13 49  1  0
 14 50  1  0
 14 51  1  0
 14 52  1  0
 15 16  1  0
 15 17  1  0
 15 18  1  0
 15 19  1  0
 19 20  2  0
 19 21  2  0
 19 22  1  0
 22 23  1  0
 23 24  2  0
 23 25  2  0
 23 26  1  0
 26 27  1  0
 26 28  1  0
 26 29  1  0
M  CHG  2  12   1  22  -1
M  END
$$$$

     RDKit          2D

 28 28  0  0  0  0  0  0  0  0999 V2000
   -3.9300   -1.7751    0.0000 C   0  0  0  0  0  0  0  0  0  0  0  0
   -3.5382   -0.3272    0.0000 O   0  0  0  0  0  0  0  0  0  0  0  0
   -2.0884    0.0575    0.0000 P   0  0  0  0  0  0  0  0  0  0  0  0
   -3.1464    1.1208    0.0000 O   0  0  0  0  0  0  0  0  0  0  0  0
   -1.6966    1.5054    0.0000 O   0  0  0  0  0  0  0  0  0  0  0  0
   -2.7546    2.5687    0.0000 C   0  0  0  0  0  0  0  0  0  0  0  0
   -0.6386    0.4421    0.0000 O   0  0  0  0  0  0  0  0  0  0  0  0
    0.4195   -0.6211    0.0000 C   0  0  0  0  0  0  0  0  0  0  0  0
    0.0277   -2.0691    0.0000 C   0  0  0  0  0  0  0  0  0  0  0  0
    1.0857   -3.1323    0.0000 Cl  0  0  0  0  0  0  0  0  0  0  0  0
    1.8693   -0.2365    0.0000 C   0  0  0  0  0  0  0  0  0  0  0  0
    2.2611    1.2114    0.0000 C   0  0  0  0  0  0  0  0  0  0  0  0
    3.7110    1.5961    0.0000 C   0  0  0  0  0  0  0  0  0  0  0  0
    4.7690    0.5328    0.0000 C   0  0  0  0  0  0  0  0  0  0  0  0
    4.3772   -0.9151    0.0000 C   0  0  0  0  0  0  0  0  0  0  0  0
    2.9274   -1.2998    0.0000 C   0  0  0  0  0  0  0  0  0  0  0  0
    2.5356   -2.7477    0.0000 Cl  0  0  0  0  0  0  0  0  0  0  0  0
    6.2189    0.9175    0.0000 Cl  0  0  0  0  0  0  0  0  0  0  0  0
    4.1028    3.0440    0.0000 Cl  0  0  0  0  0  0  0  0  0  0  0  0
   -5.3780   -1.3833    0.0000 H   0  0  0  0  0  0  0  0  0  0  0  0
   -2.4821   -2.1669    0.0000 H   0  0  0  0  0  0  0  0  0  0  0  0
   -4.3218   -3.2230    0.0000 H   0  0  0  0  0  0  0  0  0  0  0  0
   -1.6914    3.6267    0.0000 H   0  0  0  0  0  0  0  0  0  0  0  0
   -4.0423    1.7994    0.0000 H   0  0  0  0  0  0  0  0  0  0  0  0
   -3.8127    3.6320    0.0000 H   0  0  0  0  0  0  0  0  0  0  0  0
   -1.4222   -2.4537    0.0000 H   0  0  0  0  0  0  0  0  0  0  0  0
    1.2031    2.2747    0.0000 H   0  0  0  0  0  0  0  0  0  0  0  0
    5.4352   -1.9784    0.0000 H   0  0  0  0  0  0  0  0  0  0  0  0
  1  2  1  0
  1 20  1  0
  1 21  1  0
  1 22  1  0
  2  3  1  0
  3  4  2  0
  3  5  1  0
  3  7  1  0
  5  6  1  0
  6 23  1  0
  6 24  1  0
  6 25  1  0
  7  8  1  0
  8  9  2  0
  8 11  1  0
  9 10  1  0
  9 26  1  0
 11 12  2  0
 11 16  1  0
 12 13  1  0
 12 27  1  0
 13 14  2  0
 13 19  1  0
 14 15  1  0
 14 18  1  0
 15 16  2  0
 15 28  1  0
 16 17  1  0
M  END
$$$$

     RDKit          2D

 44 43  0  0  0  0  0  0  0  0999 V2000
    9.4651   -0.1885    0.0000 C   0  0  0  0  0  0  0  0  0  0  0  0
    7.9660   -0.1374    0.0000 C   0  0  0  0  0  0  0  0  0  0  0  0
    6.4668   -0.0862    0.0000 C   0  0  0  0  0  0  0  0  0  0  0  0
    4.9677   -0.0351    0.0000 C   0  0  0  0  0  0  0  0  0  0  0  0
    3.4686    0.0161    0.0000 C   0  0  0  0  0  0  0  0  0  0  0  0
    1.9695    0.0672    0.0000 C   0  0  0  0  0  0  0  0  0  0  0  0
    0.4703    0.1184    0.0000 C   0  0  0  0  0  0  0  0  0  0  0  0
   -1.0288    0.1695    0.0000 C   0  0  0  0  0  0  0  0  0  0  0  0
   -2.5279    0.2207    0.0000 C   0  0  0  0  0  0  0  0  0  0  0  0
   -4.0271    0.2718    0.0000 C   0  0  0  0  0  0  0  0  0  0  0  0
   -5.5262    0.3230    0.0000 N   0  0  0  0  0  0  0  0  0  0  0  0
   -6.3660    1.5658    0.0000 C   0  0  0  0  0  0  0  0  0  0  0  0
   -7.8075    1.1512    0.0000 C   0  0  0  0  0  0  0  0  0  0  0  0
   -7.8587   -0.3479    0.0000 N   0  0  0  0  0  0  0  0  0  0  0  0
   -6.4487   -0.8598    0.0000 C   0  0  0  0  0  0  0  0  0  0  0  0
   -9.1016   -1.1877    0.0000 C   0  0  0  0  0  0  0  0  0  0  0  0
    0.0000    3.9758    0.0000 Cl  0  0  0  0  0  0  0  0  0  0  0  0
    9.5162    1.3106    0.0000 H   0  0  0  0  0  0  0  0  0  0  0  0
    9.4139   -1.6876    0.0000 H   0  0  0  0  0  0  0  0  0  0  0  0
   10.9642   -0.2397    0.0000 H   0  0  0  0  0  0  0  0  0  0  0  0
    7.9148   -1.6365    0.0000 H   0  0  0  0  0  0  0  0  0  0  0  0
    8.0171    1.3618    0.0000 H   0  0  0  0  0  0  0  0  0  0  0  0
    6.5180    1.4129    0.0000 H   0  0  0  0  0  0  0  0  0  0  0  0
    6.4157   -1.5853    0.0000 H   0  0  0  0  0  0  0  0  0  0  0  0
    4.9166   -1.5342    0.0000 H   0  0  0  0  0  0  0  0  0  0  0  0
    5.0189    1.4641    0.0000 H   0  0  0  0  0  0  0  0  0  0  0  0
    3.5197    1.5152    0.0000 H   0  0  0  0  0  0  0  0  0  0  0  0
    3.4174   -1.4830    0.0000 H   0  0  0  0  0  0  0  0  0  0  0  0
    1.9183   -1.4319    0.0000 H   0  0  0  0  0  0  0  0  0  0  0  0
    2.0206    1.5664    0.0000 H   0  0  0  0  0  0  0  0  0  0  0  0
    0.5215    1.6175    0.0000 H   0  0  0  0  0  0  0  0  0  0  0  0
    0.4192   -1.3808    0.0000 H   0  0  0  0  0  0  0  0  0  0  0  0
   -1.0800   -1.3296    0.0000 H   0  0  0  0  0  0  0  0  0  0  0  0
   -0.9777    1.6686    0.0000 H   0  0  0  0  0  0  0  0  0  0  0  0
   -2.4768    1.7198    0.0000 H   0  0  0  0  0  0  0  0  0  0  0  0
   -2.5791   -1.2785    0.0000 H   0  0  0  0  0  0  0  0  0  0  0  0
   -4.0782   -1.2273    0.0000 H   0  0  0  0  0  0  0  0  0  0  0  0
   -3.9759    1.7709    0.0000 H   0  0  0  0  0  0  0  0  0  0  0  0
   -5.8541    2.9758    0.0000 H   0  0  0  0  0  0  0  0  0  0  0  0
   -8.9903    2.0738    0.0000 H   0  0  0  0  0  0  0  0  0  0  0  0
   -6.0341   -2.3014    0.0000 H   0  0  0  0  0  0  0  0  0  0  0  0
   -9.9413    0.0552    0.0000 H   0  0  0  0  0  0  0  0  0  0  0  0
   -8.2618   -2.4306    0.0000 H   0  0  0  0  0  0  0  0  0  0  0  0
  -10.3444   -2.0275    0.0000 H   0  0  0  0  0  0  0  0  0  0  0  0
  1  2  1  0
  1 18  1  0
  1 19  1  0
  1 20  1  0
  2  3  1  0
  2 21  1  0
  2 22  1  0
  3  4  1  0
  3 23  1  0
  3 24  1  0
  4  5  1  0
  4 25  1  0
  4 26  1  0
  5  6  1  0
  5 27  1  0
  5 28  1  0
  6  7  1  0
  6 29  1  0
  6 30  1  0
  7  8  1  0
  7 31  1  0
  7 32  1  0
  8  9  1  0
  8 33  1  0
  8 34  1  0
  9 10  1  0
  9 35  1  0
  9 36  1  0
 10 11  1  0
 10 37  1  0
 10 38  1  0
 11 12  1  0
 11 15  1  0
 12 13  2  0
 12 39  1  0
 13 14  1  0
 13 40  1  0
 14 15  2  0
 14 16  1  0
 15 41  1  0
 16 42  1  0
 16 43  1  0
 16 44  1  0
M  CHG  2  14   1  17  -1
M  END
$$$$

     RDKit          2D

 69 72  0  0  1  0  0  0  0  0999 V2000
    1.2560   -6.5975    0.0000 C   0  0  0  0  0  0  0  0  0  0  0  0
    1.5559   -5.1278    0.0000 C   0  0  0  0  0  0  0  0  0  0  0  0
    0.0564   -5.0877    0.0000 C   0  0  0  0  0  0  0  0  0  0  0  0
   -0.6585   -3.7690    0.0000 C   0  0  0  0  0  0  0  0  0  0  0  0
    0.1260   -2.4905    0.0000 C   0  0  0  0  0  0  0  0  0  0  0  0
    1.6254   -2.5307    0.0000 C   0  0  0  0  0  0  0  0  0  0  0  0
    2.3404   -3.8493    0.0000 O   0  0  0  0  0  0  0  0  0  0  0  0
    1.4046   -1.0470    0.0000 O   0  0  0  0  0  0  0  0  0  0  0  0
    2.5791   -0.1140    0.0000 C   0  0  0  0  0  0  0  0  0  0  0  0
    4.0018    0.3612    0.0000 C   0  0  0  0  0  0  0  0  0  0  0  0
    4.3018    1.8309    0.0000 C   0  0  0  0  0  0  0  0  0  0  0  0
    3.1789    2.8255    0.0000 C   0  0  0  0  0  0  0  0  0  0  0  0
    1.7561    2.3503    0.0000 C   0  0  0  0  0  0  0  0  0  0  0  0
    1.4562    0.8806    0.0000 C   0  0  0  0  0  0  0  0  0  0  0  0
    0.0335    0.4055    0.0000 C   0  0  0  0  0  0  0  0  0  0  0  0
   -1.0894    1.4001    0.0000 C   0  0  0  0  0  0  0  0  0  0  0  0
   -0.7895    2.8698    0.0000 C   0  0  0  0  0  0  0  0  0  0  0  0
    0.6333    3.3449    0.0000 C   0  0  0  0  0  0  0  0  0  0  0  0
    0.9332    4.8147    0.0000 O   0  0  0  0  0  0  0  0  0  0  0  0
   -1.9123    3.8644    0.0000 C   0  0  0  0  0  0  0  0  0  0  0  0
   -1.6124    5.3341    0.0000 O   0  0  0  0  0  0  0  0  0  0  0  0
   -3.3351    3.3893    0.0000 C   0  0  0  0  0  0  0  0  0  0  0  0
   -3.6350    1.9196    0.0000 C   0  0  0  0  0  0  0  0  0  0  0  0
   -2.5122    0.9250    0.0000 C   0  0  0  0  0  0  0  0  0  0  0  0
   -2.8121   -0.5447    0.0000 O   0  0  0  0  0  0  0  0  0  0  0  0
   -5.0578    1.4445    0.0000 C   0  0  0  0  0  0  0  0  0  0  0  0
   -6.1806    2.4391    0.0000 C   0  0  0  0  0  0  0  0  0  0  0  0
   -5.8807    3.9088    0.0000 C   0  0  0  0  0  0  0  0  0  0  0  0
   -4.4579    4.3839    0.0000 C   0  0  0  0  0  0  0  0  0  0  0  0
   -5.3577   -0.0252    0.0000 O   0  0  0  0  0  0  0  0  0  0  0  0
   -6.7805   -0.5004    0.0000 C   0  0  0  0  0  0  0  0  0  0  0  0
   -0.2665   -1.0642    0.0000 O   0  0  0  0  0  0  0  0  0  0  0  0
    5.0863    3.1094    0.0000 C   0  0  0  0  0  0  0  0  0  0  0  0
    4.5374    4.5053    0.0000 O   0  0  0  0  0  0  0  0  0  0  0  0
    6.5857    3.0692    0.0000 C   0  0  0  0  0  0  0  0  0  0  0  0
    5.6971    1.2803    0.0000 O   0  0  0  0  0  0  0  0  0  0  0  0
   -1.7814   -2.7744    0.0000 N   0  0  0  0  0  0  0  0  0  0  0  0
   -1.3663   -5.5628    0.0000 O   0  0  0  0  0  0  0  0  0  0  0  0
   -0.7500    6.8536    0.0000 Cl  0  0  0  0  0  0  0  0  0  0  0  0
    2.7257   -6.8975    0.0000 H   0  0  0  0  0  0  0  0  0  0  0  0
    0.4613   -6.5346    0.0000 H   0  0  0  0  0  0  0  0  0  0  0  0
    0.9561   -8.0673    0.0000 H   0  0  0  0  0  0  0  0  0  0  0  0
    2.9512   -5.6784    0.0000 H   0  0  0  0  0  0  0  0  0  0  0  0
    0.0768   -5.8846    0.0000 H   0  0  0  0  0  0  0  0  0  0  0  0
   -1.9380   -4.5520    0.0000 H   0  0  0  0  0  0  0  0  0  0  0  0
   -1.2693   -1.9400    0.0000 H   0  0  0  0  0  0  0  0  0  0  0  0
    0.7726   -1.1371    0.0000 H   0  0  0  0  0  0  0  0  0  0  0  0
    3.0955   -2.2325    0.0000 H   0  0  0  0  0  0  0  0  0  0  0  0
    3.4494   -1.3356    0.0000 H   0  0  0  0  0  0  0  0  0  0  0  0
    5.5013    0.3210    0.0000 H   0  0  0  0  0  0  0  0  0  0  0  0
    4.2227   -1.1225    0.0000 H   0  0  0  0  0  0  0  0  0  0  0  0
    2.4639    4.1441    0.0000 H   0  0  0  0  0  0  0  0  0  0  0  0
    4.2309    3.8948    0.0000 H   0  0  0  0  0  0  0  0  0  0  0  0
   -0.1896    5.8092    0.0000 H   0  0  0  0  0  0  0  0  0  0  0  0
   -7.6034    1.9639    0.0000 H   0  0  0  0  0  0  0  0  0  0  0  0
   -7.0035    4.9034    0.0000 H   0  0  0  0  0  0  0  0  0  0  0  0
   -4.1580    5.8536    0.0000 H   0  0  0  0  0  0  0  0  0  0  0  0
   -6.3053   -1.9231    0.0000 H   0  0  0  0  0  0  0  0  0  0  0  0
   -7.2556    0.9224    0.0000 H   0  0  0  0  0  0  0  0  0  0  0  0
   -8.2032   -0.9755    0.0000 H   0  0  0  0  0  0  0  0  0  0  0  0
   -1.7619   -1.1809    0.0000 H   0  0  0  0  0  0  0  0  0  0  0  0
    6.6259    4.5687    0.0000 H   0  0  0  0  0  0  0  0  0  0  0  0
    7.0857    1.6550    0.0000 H   0  0  0  0  0  0  0  0  0  0  0  0
    8.0852    3.0291    0.0000 H   0  0  0  0  0  0  0  0  0  0  0  0
    6.9765    2.0633    0.0000 H   0  0  0  0  0  0  0  0  0  0  0  0
   -3.2041   -3.2496    0.0000 H   0  0  0  0  0  0  0  0  0  0  0  0
   -1.8460   -1.2758    0.0000 H   0  0  0  0  0  0  0  0  0  0  0  0
   -2.6020   -4.7125    0.0000 H   0  0  0  0  0  0  0  0  0  0  0  0
    0.7500    6.8536    0.0000 H   0  0  0  0  0  0  0  0  0  0  0  0
  1 40  1  0
  1 41  1  0
  1 42  1  0
  2  3  1  0
  2  7  1  0
  2 43  1  6
  2  1  1  0
  3  4  1  0
  3 44  1  6
  3 38  1  0
  4  5  1  0
  4 45  1  6
  4 37  1  0
  5  6  1  0
  5 46  1  0
  5 47  1  0
  6  7  1  0
  6  8  1  0
  6 48  1  1
  9 10  1  0
  9 14  1  0
  9 49  1  1
  9  8  1  0
 10 11  1  0
 10 50  1  0
 10 51  1  0
 11 12  1  0
 11 33  1  0
 11 36  1  6
 12 13  1  0
 12 52  1  0
 12 53  1  0
 13 14  2  0
 13 18  1  0
 14 15  1  0
 15 16  2  0
 15 32  1  0
 16 17  1  0
 16 24  1  0
 17 18  2  0
 17 20  1  0
 18 19  1  0
 19 54  1  0
 20 21  2  0
 20 22  1  0
 22 23  2  0
 22 29  1  0
 23 24  1  0
 23 26  1  0
 24 25  2  0
 26 27  2  0
 26 30  1  0
 27 28  1  0
 27 55  1  0
 28 29  2  0
 28 56  1  0
 29 57  1  0
 30 31  1  0
 31 58  1  0
 31 59  1  0
 31 60  1  0
 32 61  1  0
 33 34  2  0
 33 35  1  0
 35 62  1  0
 35 63  1  0
 35 64  1  0
 36 65  1  0
 37 66  1  0
 37 67  1  0
 38 68  1  0
 39 69  1  0
M  END
$$$$

     RDKit          2D

 29 29  0  0  0  0  0  0  0  0999 V2000
   -4.0067    1.2625    0.0000 C   0  0  0  0  0  0  0  0  0  0  0  0
   -2.5350    1.5526    0.0000 C   0  0  0  0  0  0  0  0  0  0  0  0
   -1.0634    1.8427    0.0000 O   0  0  0  0  0  0  0  0  0  0  0  0
   -0.0763    0.7132    0.0000 P   0  0  0  0  0  0  0  0  0  0  0  0
    0.4083    2.1328    0.0000 O   0  0  0  0  0  0  0  0  0  0  0  0
   -1.5479    0.4231    0.0000 O   0  0  0  0  0  0  0  0  0  0  0  0
   -2.0325   -0.9964    0.0000 C   0  0  0  0  0  0  0  0  0  0  0  0
   -2.5171   -2.4160    0.0000 C   0  0  0  0  0  0  0  0  0  0  0  0
    0.9108   -0.4162    0.0000 O   0  0  0  0  0  0  0  0  0  0  0  0
    2.3825   -0.1261    0.0000 C   0  0  0  0  0  0  0  0  0  0  0  0
    2.8671    1.2935    0.0000 N   0  0  0  0  0  0  0  0  0  0  0  0
    4.3388    1.5836    0.0000 C   0  0  0  0  0  0  0  0  0  0  0  0
    5.3258    0.4541    0.0000 C   0  0  0  0  0  0  0  0  0  0  0  0
    4.8413   -0.9654    0.0000 C   0  0  0  0  0  0  0  0  0  0  0  0
    3.3696   -1.2556    0.0000 C   0  0  0  0  0  0  0  0  0  0  0  0
    2.8850   -2.6751    0.0000 Cl  0  0  0  0  0  0  0  0  0  0  0  0
    6.7975    0.7442    0.0000 Cl  0  0  0  0  0  0  0  0  0  0  0  0
    4.8234    3.0031    0.0000 Cl  0  0  0  0  0  0  0  0  0  0  0  0
   -4.2968    2.7342    0.0000 H   0  0  0  0  0  0  0  0  0  0  0  0
   -3.9188    0.0507    0.0000 H   0  0  0  0  0  0  0  0  0  0  0  0
   -5.4784    0.9724    0.0000 H   0  0  0  0  0  0  0  0  0  0  0  0
   -2.8251    3.0243    0.0000 H   0  0  0  0  0  0  0  0  0  0  0  0
   -2.6096    0.0544    0.0000 H   0  0  0  0  0  0  0  0  0  0  0  0
   -3.2217   -0.7470    0.0000 H   0  0  0  0  0  0  0  0  0  0  0  0
   -0.6130   -1.4810    0.0000 H   0  0  0  0  0  0  0  0  0  0  0  0
   -1.0976   -2.9006    0.0000 H   0  0  0  0  0  0  0  0  0  0  0  0
   -3.9367   -1.9314    0.0000 H   0  0  0  0  0  0  0  0  0  0  0  0
   -3.0017   -3.8356    0.0000 H   0  0  0  0  0  0  0  0  0  0  0  0
    5.8283   -2.0949    0.0000 H   0  0  0  0  0  0  0  0  0  0  0  0
  1  2  1  0
  1 19  1  0
  1 20  1  0
  1 21  1  0
  2  3  1  0
  2 22  1  0
  2 23  1  0
  3  4  1  0
  4  5  2  0
  4  6  1  0
  4  9  1  0
  6  7  1  0
  7  8  1  0
  7 24  1  0
  7 25  1  0
  8 26  1  0
  8 27  1  0
  8 28  1  0
  9 10  1  0
 10 11  2  0
 10 15  1  0
 11 12  1  0
 12 13  2  0
 12 18  1  0
 13 14  1  0
 13 17  1  0
 14 15  2  0
 14 29  1  0
 15 16  1  0
M  END
$$$$

     RDKit          2D

 45 44  0  0  0  0  0  0  0  0999 V2000
    7.9593   -0.2093    0.0000 C   0  0  0  0  0  0  0  0  0  0  0  0
    6.4609   -0.1405    0.0000 C   0  0  0  0  0  0  0  0  0  0  0  0
    4.9624   -0.0717    0.0000 C   0  0  0  0  0  0  0  0  0  0  0  0
    3.4640   -0.0028    0.0000 C   0  0  0  0  0  0  0  0  0  0  0  0
    1.9656    0.0660    0.0000 C   0  0  0  0  0  0  0  0  0  0  0  0
    0.4672    0.1348    0.0000 C   0  0  0  0  0  0  0  0  0  0  0  0
   -1.0312    0.2037    0.0000 C   0  0  0  0  0  0  0  0  0  0  0  0
   -2.5297    0.2725    0.0000 C   0  0  0  0  0  0  0  0  0  0  0  0
   -4.0281    0.3413    0.0000 N   0  0  0  0  0  0  0  0  0  0  0  0
   -4.8531    1.5940    0.0000 C   0  0  0  0  0  0  0  0  0  0  0  0
   -6.2995    1.1965    0.0000 C   0  0  0  0  0  0  0  0  0  0  0  0
   -6.3683   -0.3020    0.0000 N   0  0  0  0  0  0  0  0  0  0  0  0
   -4.9645   -0.8305    0.0000 C   0  0  0  0  0  0  0  0  0  0  0  0
   -7.6210   -1.1270    0.0000 C   0  0  0  0  0  0  0  0  0  0  0  0
    0.7500    5.4978    0.0000 C   0  0  0  0  0  0  0  0  0  0  0  0
    0.7500    3.9978    0.0000 F   0  0  0  0  0  0  0  0  0  0  0  0
    0.7500    6.9978    0.0000 F   0  0  0  0  0  0  0  0  0  0  0  0
    2.2500    5.4978    0.0000 F   0  0  0  0  0  0  0  0  0  0  0  0
   -0.7500    5.4978    0.0000 S   0  0  0  0  0  0  0  0  0  0  0  0
   -0.7500    6.9978    0.0000 O   0  0  0  0  0  0  0  0  0  0  0  0
   -0.7500    3.9978    0.0000 O   0  0  0  0  0  0  0  0  0  0  0  0
   -2.2500    5.4978    0.0000 O   0  0  0  0  0  0  0  0  0  0  0  0
    8.0281    1.2891    0.0000 H   0  0  0  0  0  0  0  0  0  0  0  0
    7.8905   -1.7077    0.0000 H   0  0  0  0  0  0  0  0  0  0  0  0
    9.4577   -0.2782    0.0000 H   0  0  0  0  0  0  0  0  0  0  0  0
    6.3920   -1.6389    0.0000 H   0  0  0  0  0  0  0  0  0  0  0  0
    6.5297    1.3579    0.0000 H   0  0  0  0  0  0  0  0  0  0  0  0
    5.0313    1.4268    0.0000 H   0  0  0  0  0  0  0  0  0  0  0  0
    4.8936   -1.5701    0.0000 H   0  0  0  0  0  0  0  0  0  0  0  0
    3.3952   -1.5013    0.0000 H   0  0  0  0  0  0  0  0  0  0  0  0
    3.5329    1.4956    0.0000 H   0  0  0  0  0  0  0  0  0  0  0  0
    2.0344    1.5644    0.0000 H   0  0  0  0  0  0  0  0  0  0  0  0
    1.8968   -1.4324    0.0000 H   0  0  0  0  0  0  0  0  0  0  0  0
    0.3984   -1.3636    0.0000 H   0  0  0  0  0  0  0  0  0  0  0  0
    0.5360    1.6333    0.0000 H   0  0  0  0  0  0  0  0  0  0  0  0
   -0.9624    1.7021    0.0000 H   0  0  0  0  0  0  0  0  0  0  0  0
   -1.1001   -1.2948    0.0000 H   0  0  0  0  0  0  0  0  0  0  0  0
   -2.5985   -1.2259    0.0000 H   0  0  0  0  0  0  0  0  0  0  0  0
   -2.4608    1.7709    0.0000 H   0  0  0  0  0  0  0  0  0  0  0  0
   -4.3246    2.9978    0.0000 H   0  0  0  0  0  0  0  0  0  0  0  0
   -7.4713    2.1329    0.0000 H   0  0  0  0  0  0  0  0  0  0  0  0
   -4.5669   -2.2768    0.0000 H   0  0  0  0  0  0  0  0  0  0  0  0
   -8.4461    0.1257    0.0000 H   0  0  0  0  0  0  0  0  0  0  0  0
   -6.7960   -2.3797    0.0000 H   0  0  0  0  0  0  0  0  0  0  0  0
   -8.8737   -1.9521    0.0000 H   0  0  0  0  0  0  0  0  0  0  0  0
  1  2  1  0
  1 23  1  0
  1 24  1  0
  1 25  1  0
  2  3  1  0
  2 26  1  0
  2 27  1  0
  3  4  1  0
  3 28  1  0
  3 29  1  0
  4  5  1  0
  4 30  1  0
  4 31  1  0
  5  6  1  0
  5 32  1  0
  5 33  1  0
  6  7  1  0
  6 34  1  0
  6 35  1  0
  7  8  1  0
  7 36  1  0
  7 37  1  0
  8  9  1  0
  8 38  1  0
  8 39  1  0
  9 10  1  0
  9 13  1  0
 10 11  2  0
 10 40  1  0
 11 12  1  0
 11 41  1  0
 12 13  2  0
 12 14  1  0
 13 42  1  0
 14 43  1  0
 14 44  1  0
 14 45  1  0
 15 16  1  0
 15 17  1  0
 15 18  1  0
 15 19  1  0
 19 20  2  0
 19 21  2  0
 19 22  1  0
M  CHG  2  12   1  22  -1
M  END
$$$$

     RDKit          2D

 33 34  0  0  0  0  0  0  0  0999 V2000
    3.9616   -1.1539    0.0000 C   0  0  0  0  0  0  0  0  0  0  0  0
    4.0644    0.3426    0.0000 C   0  0  0  0  0  0  0  0  0  0  0  0
    2.8198    1.1799    0.0000 C   0  0  0  0  0  0  0  0  0  0  0  0
    1.4724    0.5206    0.0000 N   0  0  0  0  0  0  0  0  0  0  0  0
    1.3696   -0.9758    0.0000 C   0  0  0  0  0  0  0  0  0  0  0  0
    2.6142   -1.8131    0.0000 C   0  0  0  0  0  0  0  0  0  0  0  0
    2.5114   -3.3096    0.0000 Cl  0  0  0  0  0  0  0  0  0  0  0  0
    0.0223   -1.6351    0.0000 N   0  0  0  0  0  0  0  0  0  0  0  0
   -1.2223   -0.7978    0.0000 C   0  0  0  0  0  0  0  0  0  0  0  0
   -1.1196    0.6986    0.0000 C   0  0  0  0  0  0  0  0  0  0  0  0
   -2.3642    1.5359    0.0000 C   0  0  0  0  0  0  0  0  0  0  0  0
   -3.7115    0.8767    0.0000 C   0  0  0  0  0  0  0  0  0  0  0  0
   -3.8143   -0.6198    0.0000 C   0  0  0  0  0  0  0  0  0  0  0  0
   -2.5697   -1.4571    0.0000 C   0  0  0  0  0  0  0  0  0  0  0  0
   -2.6725   -2.9535    0.0000 N   0  0  0  0  0  0  0  0  0  0  0  0
   -1.4279   -3.7908    0.0000 O   0  0  0  0  0  0  0  0  0  0  0  0
   -4.0199   -3.6128    0.0000 O   0  0  0  0  0  0  0  0  0  0  0  0
   -5.1617   -1.2790    0.0000 Cl  0  0  0  0  0  0  0  0  0  0  0  0
   -4.9561    1.7139    0.0000 C   0  0  0  0  0  0  0  0  0  0  0  0
   -6.2007    2.5512    0.0000 F   0  0  0  0  0  0  0  0  0  0  0  0
   -5.7934    0.4693    0.0000 F   0  0  0  0  0  0  0  0  0  0  0  0
   -4.1189    2.9585    0.0000 F   0  0  0  0  0  0  0  0  0  0  0  0
    0.2278    1.3579    0.0000 N   0  0  0  0  0  0  0  0  0  0  0  0
    0.9773    1.0862    0.0000 O   0  0  0  0  0  0  0  0  0  0  0  0
    0.3306    2.8543    0.0000 O   0  0  0  0  0  0  0  0  0  0  0  0
    5.4118    1.0018    0.0000 C   0  0  0  0  0  0  0  0  0  0  0  0
    6.7591    1.6611    0.0000 F   0  0  0  0  0  0  0  0  0  0  0  0
    4.7525    2.3492    0.0000 F   0  0  0  0  0  0  0  0  0  0  0  0
    6.0710   -0.3455    0.0000 F   0  0  0  0  0  0  0  0  0  0  0  0
    5.2062   -1.9911    0.0000 H   0  0  0  0  0  0  0  0  0  0  0  0
    2.9226    2.6763    0.0000 H   0  0  0  0  0  0  0  0  0  0  0  0
   -0.0805   -3.1315    0.0000 H   0  0  0  0  0  0  0  0  0  0  0  0
   -2.2614    3.0324    0.0000 H   0  0  0  0  0  0  0  0  0  0  0  0
  1  2  2  0
  1  6  1  0
  1 30  1  0
  2  3  1  0
  2 26  1  0
  3  4  2  0
  3 31  1  0
  4  5  1  0
  5  6  2  0
  5  8  1  0
  6  7  1  0
  8  9  1  0
  8 32  1  0
  9 10  2  0
  9 14  1  0
 10 11  1  0
 10 23  1  0
 11 12  2  0
 11 33  1  0
 12 13  1  0
 12 19  1  0
 13 14  2  0
 13 18  1  0
 14 15  1  0
 15 16  2  0
 15 17  1  0
 19 20  1  0
 19 21  1  0
 19 22  1  0
 23 24  2  0
 23 25  1  0
 26 27  1  0
 26 28  1  0
 26 29  1  0
M  CHG  4  15   1  17  -1  23   1  25  -1
M  END
$$$$

     RDKit          2D

 63 65  0  0  1  0  0  0  0  0999 V2000
    0.1853   -5.4314    0.0000 C   0  0  0  0  0  0  0  0  0  0  0  0
    0.6503   -4.0054    0.0000 C   0  0  0  0  0  0  0  0  0  0  0  0
    2.1448   -3.8763    0.0000 O   0  0  0  0  0  0  0  0  0  0  0  0
   -0.3521   -2.8896    0.0000 O   0  0  0  0  0  0  0  0  0  0  0  0
    0.1129   -1.4635    0.0000 C   0  0  0  0  0  0  0  0  0  0  0  0
   -1.3722   -1.2531    0.0000 C   0  0  0  0  0  0  0  0  0  0  0  0
   -1.9327    0.1383    0.0000 C   0  0  0  0  0  0  0  0  0  0  0  0
   -1.0079    1.3193    0.0000 C   0  0  0  0  0  0  0  0  0  0  0  0
   -1.5683    2.7107    0.0000 C   0  0  0  0  0  0  0  0  0  0  0  0
   -3.0535    2.9210    0.0000 C   0  0  0  0  0  0  0  0  0  0  0  0
   -3.9782    1.7400    0.0000 C   0  0  0  0  0  0  0  0  0  0  0  0
   -3.4178    0.3486    0.0000 C   0  0  0  0  0  0  0  0  0  0  0  0
   -3.3671   -1.1505    0.0000 C   0  0  0  0  0  0  0  0  0  0  0  0
   -4.8854    0.0384    0.0000 C   0  0  0  0  0  0  0  0  0  0  0  0
   -0.1007    3.0210    0.0000 O   0  0  0  0  0  0  0  0  0  0  0  0
    0.4773    1.1089    0.0000 C   0  0  0  0  0  0  0  0  0  0  0  0
    1.0377   -0.2825    0.0000 C   0  0  0  0  0  0  0  0  0  0  0  0
    2.5229   -0.4928    0.0000 O   0  0  0  0  0  0  0  0  0  0  0  0
    3.4476    0.6882    0.0000 C   0  0  0  0  0  0  0  0  0  0  0  0
    2.8872    2.0796    0.0000 C   0  0  0  0  0  0  0  0  0  0  0  0
    1.4021    2.2899    0.0000 C   0  0  0  0  0  0  0  0  0  0  0  0
    1.1950    3.7756    0.0000 O   0  0  0  0  0  0  0  0  0  0  0  0
    4.7206    1.4817    0.0000 C   0  0  0  0  0  0  0  0  0  0  0  0
    4.4501   -0.4276    0.0000 C   0  0  0  0  0  0  0  0  0  0  0  0
    5.9177   -0.1173    0.0000 C   0  0  0  0  0  0  0  0  0  0  0  0
    1.5981   -1.6738    0.0000 C   0  0  0  0  0  0  0  0  0  0  0  0
   -0.4475   -0.0721    0.0000 O   0  0  0  0  0  0  0  0  0  0  0  0
   -0.0831    2.5003    0.0000 C   0  0  0  0  0  0  0  0  0  0  0  0
   -2.8398   -1.5634    0.0000 O   0  0  0  0  0  0  0  0  0  0  0  0
    1.6114   -5.8965    0.0000 H   0  0  0  0  0  0  0  0  0  0  0  0
   -1.2408   -4.9664    0.0000 H   0  0  0  0  0  0  0  0  0  0  0  0
   -0.2798   -6.8575    0.0000 H   0  0  0  0  0  0  0  0  0  0  0  0
    1.2265   -2.4684    0.0000 H   0  0  0  0  0  0  0  0  0  0  0  0
   -1.3215   -2.7522    0.0000 H   0  0  0  0  0  0  0  0  0  0  0  0
   -2.8574   -1.0427    0.0000 H   0  0  0  0  0  0  0  0  0  0  0  0
   -1.8014    4.1925    0.0000 H   0  0  0  0  0  0  0  0  0  0  0  0
   -4.3771    3.6267    0.0000 H   0  0  0  0  0  0  0  0  0  0  0  0
   -2.5884    4.3471    0.0000 H   0  0  0  0  0  0  0  0  0  0  0  0
   -5.3384    1.1076    0.0000 H   0  0  0  0  0  0  0  0  0  0  0  0
   -4.9807    2.8558    0.0000 H   0  0  0  0  0  0  0  0  0  0  0  0
   -4.8489   -1.3836    0.0000 H   0  0  0  0  0  0  0  0  0  0  0  0
   -1.9002   -1.4640    0.0000 H   0  0  0  0  0  0  0  0  0  0  0  0
   -3.4995   -2.6446    0.0000 H   0  0  0  0  0  0  0  0  0  0  0  0
   -4.7563   -1.4561    0.0000 H   0  0  0  0  0  0  0  0  0  0  0  0
   -5.3722    1.4572    0.0000 H   0  0  0  0  0  0  0  0  0  0  0  0
   -6.3529   -0.2719    0.0000 H   0  0  0  0  0  0  0  0  0  0  0  0
    0.0054    4.5172    0.0000 H   0  0  0  0  0  0  0  0  0  0  0  0
    2.8365    3.5787    0.0000 H   0  0  0  0  0  0  0  0  0  0  0  0
    4.3060    2.5664    0.0000 H   0  0  0  0  0  0  0  0  0  0  0  0
    5.7985    0.4386    0.0000 H   0  0  0  0  0  0  0  0  0  0  0  0
    4.0882    2.8419    0.0000 H   0  0  0  0  0  0  0  0  0  0  0  0
    5.9935    2.2752    0.0000 H   0  0  0  0  0  0  0  0  0  0  0  0
    3.9851   -1.8537    0.0000 H   0  0  0  0  0  0  0  0  0  0  0  0
    6.9202   -1.2331    0.0000 H   0  0  0  0  0  0  0  0  0  0  0  0
    6.3828    1.3088    0.0000 H   0  0  0  0  0  0  0  0  0  0  0  0
    3.0837   -1.4668    0.0000 H   0  0  0  0  0  0  0  0  0  0  0  0
    0.7800   -2.9311    0.0000 H   0  0  0  0  0  0  0  0  0  0  0  0
    2.3239   -2.9865    0.0000 H   0  0  0  0  0  0  0  0  0  0  0  0
   -0.4230   -1.5719    0.0000 H   0  0  0  0  0  0  0  0  0  0  0  0
   -0.8542    3.7870    0.0000 H   0  0  0  0  0  0  0  0  0  0  0  0
    1.3938    2.2384    0.0000 H   0  0  0  0  0  0  0  0  0  0  0  0
    0.8417    3.6813    0.0000 H   0  0  0  0  0  0  0  0  0  0  0  0
   -3.1276   -3.0355    0.0000 H   0  0  0  0  0  0  0  0  0  0  0  0
  1  2  1  0
  1 30  1  0
  1 31  1  0
  1 32  1  0
  2  3  2  0
  2  4  1  0
  5  6  1  0
  5 17  1  0
  5 33  1  6
  5  4  1  0
  6  7  1  0
  6 34  1  6
  6 29  1  0
  7  8  1  0
  7 12  1  0
  7 35  1  1
  8  9  1  0
  8 16  1  0
  8 28  1  6
  9 10  1  0
  9 15  1  0
  9 36  1  1
 10 11  1  0
 10 37  1  0
 10 38  1  0
 11 12  1  0
 11 39  1  0
 11 40  1  0
 12 13  1  0
 12 14  1  0
 13 41  1  0
 13 42  1  0
 13 43  1  0
 14 44  1  0
 14 45  1  0
 14 46  1  0
 15 47  1  0
 16 17  1  0
 16 21  1  0
 16 27  1  1
 17 18  1  0
 17 26  1  1
 18 19  1  0
 19 20  1  0
 19 23  1  1
 19 24  1  0
 20 21  1  0
 20 48  1  0
 20 49  1  0
 21 22  2  0
 23 50  1  0
 23 51  1  0
 23 52  1  0
 24 25  2  0
 24 53  1  0
 25 54  1  0
 25 55  1  0
 26 56  1  0
 26 57  1  0
 26 58  1  0
 27 59  1  0
 28 60  1  0
 28 61  1  0
 28 62  1  0
 29 63  1  0
M  END
$$$$

     RDKit          2D

 64 68  0  0  1  0  0  0  0  0999 V2000
    2.2791   -6.2913    0.0000 C   0  0  0  0  0  0  0  0  0  0  0  0
    2.2657   -4.7914    0.0000 C   0  0  0  0  0  0  0  0  0  0  0  0
    0.7908   -5.0650    0.0000 C   0  0  0  0  0  0  0  0  0  0  0  0
   -0.1836   -3.9246    0.0000 C   0  0  0  0  0  0  0  0  0  0  0  0
    0.3168   -2.5106    0.0000 C   0  0  0  0  0  0  0  0  0  0  0  0
    1.7917   -2.2369    0.0000 C   0  0  0  0  0  0  0  0  0  0  0  0
    2.7661   -3.3773    0.0000 O   0  0  0  0  0  0  0  0  0  0  0  0
    1.2661   -0.8320    0.0000 O   0  0  0  0  0  0  0  0  0  0  0  0
    2.2199    0.3256    0.0000 C   0  0  0  0  0  0  0  0  0  0  0  0
    3.5122    1.0872    0.0000 C   0  0  0  0  0  0  0  0  0  0  0  0
    3.4988    2.5871    0.0000 C   0  0  0  0  0  0  0  0  0  0  0  0
    2.1931    3.3255    0.0000 C   0  0  0  0  0  0  0  0  0  0  0  0
    0.9008    2.5639    0.0000 C   0  0  0  0  0  0  0  0  0  0  0  0
    0.9142    1.0640    0.0000 C   0  0  0  0  0  0  0  0  0  0  0  0
   -0.3780    0.3024    0.0000 C   0  0  0  0  0  0  0  0  0  0  0  0
   -1.6837    1.0408    0.0000 C   0  0  0  0  0  0  0  0  0  0  0  0
   -1.6971    2.5407    0.0000 C   0  0  0  0  0  0  0  0  0  0  0  0
   -0.4049    3.3023    0.0000 C   0  0  0  0  0  0  0  0  0  0  0  0
   -0.4183    4.8022    0.0000 O   0  0  0  0  0  0  0  0  0  0  0  0
   -3.0028    3.2791    0.0000 C   0  0  0  0  0  0  0  0  0  0  0  0
   -3.0162    4.7790    0.0000 O   0  0  0  0  0  0  0  0  0  0  0  0
   -4.2951    2.5175    0.0000 C   0  0  0  0  0  0  0  0  0  0  0  0
   -4.2817    1.0175    0.0000 C   0  0  0  0  0  0  0  0  0  0  0  0
   -2.9760    0.2792    0.0000 C   0  0  0  0  0  0  0  0  0  0  0  0
   -2.9626   -1.2208    0.0000 O   0  0  0  0  0  0  0  0  0  0  0  0
   -5.5740    0.2560    0.0000 C   0  0  0  0  0  0  0  0  0  0  0  0
   -6.8797    0.9943    0.0000 C   0  0  0  0  0  0  0  0  0  0  0  0
   -6.8931    2.4943    0.0000 C   0  0  0  0  0  0  0  0  0  0  0  0
   -5.6008    3.2558    0.0000 C   0  0  0  0  0  0  0  0  0  0  0  0
   -5.5606   -1.2440    0.0000 O   0  0  0  0  0  0  0  0  0  0  0  0
   -0.3646   -1.1975    0.0000 O   0  0  0  0  0  0  0  0  0  0  0  0
    3.9992    4.0012    0.0000 C   0  0  0  0  0  0  0  0  0  0  0  0
    3.1711    5.2519    0.0000 O   0  0  0  0  0  0  0  0  0  0  0  0
    5.4740    4.2749    0.0000 C   0  0  0  0  0  0  0  0  0  0  0  0
    4.9783    2.3399    0.0000 O   0  0  0  0  0  0  0  0  0  0  0  0
   -1.4893   -3.1863    0.0000 N   0  0  0  0  0  0  0  0  0  0  0  0
   -0.5014   -5.8266    0.0000 O   0  0  0  0  0  0  0  0  0  0  0  0
    1.4888   -6.3956    0.0000 H   0  0  0  0  0  0  0  0  0  0  0  0
    3.7790   -6.2779    0.0000 H   0  0  0  0  0  0  0  0  0  0  0  0
    2.2925   -7.7913    0.0000 H   0  0  0  0  0  0  0  0  0  0  0  0
    3.7452   -5.0386    0.0000 H   0  0  0  0  0  0  0  0  0  0  0  0
    0.9771   -5.8401    0.0000 H   0  0  0  0  0  0  0  0  0  0  0  0
   -1.2714   -4.9574    0.0000 H   0  0  0  0  0  0  0  0  0  0  0  0
   -1.1626   -2.2633    0.0000 H   0  0  0  0  0  0  0  0  0  0  0  0
    0.6668   -1.0520    0.0000 H   0  0  0  0  0  0  0  0  0  0  0  0
    3.1671   -1.6385    0.0000 H   0  0  0  0  0  0  0  0  0  0  0  0
    3.3261   -0.6875    0.0000 H   0  0  0  0  0  0  0  0  0  0  0  0
    4.9870    1.3609    0.0000 H   0  0  0  0  0  0  0  0  0  0  0  0
    4.0378   -0.3177    0.0000 H   0  0  0  0  0  0  0  0  0  0  0  0
    1.2187    4.4659    0.0000 H   0  0  0  0  0  0  0  0  0  0  0  0
    2.9988    4.5908    0.0000 H   0  0  0  0  0  0  0  0  0  0  0  0
   -1.7240    5.5406    0.0000 H   0  0  0  0  0  0  0  0  0  0  0  0
   -8.1720    0.2327    0.0000 H   0  0  0  0  0  0  0  0  0  0  0  0
   -8.1988    3.2326    0.0000 H   0  0  0  0  0  0  0  0  0  0  0  0
   -5.6142    4.7558    0.0000 H   0  0  0  0  0  0  0  0  0  0  0  0
   -6.8529   -2.0056    0.0000 H   0  0  0  0  0  0  0  0  0  0  0  0
   -1.8028   -1.6238    0.0000 H   0  0  0  0  0  0  0  0  0  0  0  0
    5.2004    5.7497    0.0000 H   0  0  0  0  0  0  0  0  0  0  0  0
    6.2582    2.9962    0.0000 H   0  0  0  0  0  0  0  0  0  0  0  0
    6.9489    4.5486    0.0000 H   0  0  0  0  0  0  0  0  0  0  0  0
    6.0662    3.3726    0.0000 H   0  0  0  0  0  0  0  0  0  0  0  0
   -2.7815   -3.9479    0.0000 H   0  0  0  0  0  0  0  0  0  0  0  0
   -1.8652   -1.7342    0.0000 H   0  0  0  0  0  0  0  0  0  0  0  0
   -1.8874   -5.2529    0.0000 H   0  0  0  0  0  0  0  0  0  0  0  0
  1 38  1  0
  1 39  1  0
  1 40  1  0
  2  3  1  0
  2  7  1  0
  2 41  1  6
  2  1  1  0
  3  4  1  0
  3 42  1  6
  3 37  1  0
  4  5  1  0
  4 43  1  6
  4 36  1  0
  5  6  1  0
  5 44  1  0
  5 45  1  0
  6  7  1  0
  6  8  1  0
  6 46  1  1
  9 10  1  0
  9 14  1  0
  9 47  1  1
  9  8  1  0
 10 11  1  0
 10 48  1  0
 10 49  1  0
 11 12  1  0
 11 32  1  0
 11 35  1  6
 12 13  1  0
 12 50  1  0
 12 51  1  0
 13 14  2  0
 13 18  1  0
 14 15  1  0
 15 16  2  0
 15 31  1  0
 16 17  1  0
 16 24  1  0
 17 18  2  0
 17 20  1  0
 18 19  1  0
 19 52  1  0
 20 21  2  0
 20 22  1  0
 22 23  2  0
 22 29  1  0
 23 24  1  0
 23 26  1  0
 24 25  2  0
 26 27  2  0
 26 30  1  0
 27 28  1  0
 27 53  1  0
 28 29  2  0
 28 54  1  0
 29 55  1  0
 30 56  1  0
 31 57  1  0
 32 33  2  0
 32 34  1  0
 34 58  1  0
 34 59  1  0
 34 60  1  0
 35 61  1  0
 36 62  1  0
 36 63  1  0
 37 64  1  0
M  END
$$$$

     RDKit          2D

 64 68  0  0  0  0  0  0  0  0999 V2000
    2.2791   -6.2913    0.0000 C   0  0  0  0  0  0  0  0  0  0  0  0
    2.2657   -4.7914    0.0000 C   0  0  0  0  0  0  0  0  0  0  0  0
    0.7908   -5.0650    0.0000 C   0  0  0  0  0  0  0  0  0  0  0  0
   -0.1836   -3.9246    0.0000 C   0  0  0  0  0  0  0  0  0  0  0  0
    0.3168   -2.5106    0.0000 C   0  0  0  0  0  0  0  0  0  0  0  0
    1.7917   -2.2369    0.0000 C   0  0  0  0  0  0  0  0  0  0  0  0
    2.7661   -3.3773    0.0000 O   0  0  0  0  0  0  0  0  0  0  0  0
    1.2661   -0.8320    0.0000 O   0  0  0  0  0  0  0  0  0  0  0  0
    2.2199    0.3256    0.0000 C   0  0  0  0  0  0  0  0  0  0  0  0
    3.5122    1.0872    0.0000 C   0  0  0  0  0  0  0  0  0  0  0  0
    3.4988    2.5871    0.0000 C   0  0  0  0  0  0  0  0  0  0  0  0
    2.1931    3.3255    0.0000 C   0  0  0  0  0  0  0  0  0  0  0  0
    0.9008    2.5639    0.0000 C   0  0  0  0  0  0  0  0  0  0  0  0
    0.9142    1.0640    0.0000 C   0  0  0  0  0  0  0  0  0  0  0  0
   -0.3780    0.3024    0.0000 C   0  0  0  0  0  0  0  0  0  0  0  0
   -1.6837    1.0408    0.0000 C   0  0  0  0  0  0  0  0  0  0  0  0
   -1.6971    2.5407    0.0000 C   0  0  0  0  0  0  0  0  0  0  0  0
   -0.4049    3.3023    0.0000 C   0  0  0  0  0  0  0  0  0  0  0  0
   -0.4183    4.8022    0.0000 O   0  0  0  0  0  0  0  0  0  0  0  0
   -3.0028    3.2791    0.0000 C   0  0  0  0  0  0  0  0  0  0  0  0
   -3.0162    4.7790    0.0000 O   0  0  0  0  0  0  0  0  0  0  0  0
   -4.2951    2.5175    0.0000 C   0  0  0  0  0  0  0  0  0  0  0  0
   -4.2817    1.0175    0.0000 C   0  0  0  0  0  0  0  0  0  0  0  0
   -2.9760    0.2792    0.0000 C   0  0  0  0  0  0  0  0  0  0  0  0
   -2.9626   -1.2208    0.0000 O   0  0  0  0  0  0  0  0  0  0  0  0
   -5.5740    0.2560    0.0000 C   0  0  0  0  0  0  0  0  0  0  0  0
   -6.8797    0.9943    0.0000 C   0  0  0  0  0  0  0  0  0  0  0  0
   -6.8931    2.4943    0.0000 C   0  0  0  0  0  0  0  0  0  0  0  0
   -5.6008    3.2558    0.0000 C   0  0  0  0  0  0  0  0  0  0  0  0
   -5.5606   -1.2440    0.0000 O   0  0  0  0  0  0  0  0  0  0  0  0
   -0.3646   -1.1975    0.0000 O   0  0  0  0  0  0  0  0  0  0  0  0
    3.9992    4.0012    0.0000 C   0  0  0  0  0  0  0  0  0  0  0  0
    3.1711    5.2519    0.0000 O   0  0  0  0  0  0  0  0  0  0  0  0
    5.4740    4.2749    0.0000 C   0  0  0  0  0  0  0  0  0  0  0  0
    4.9783    2.3399    0.0000 O   0  0  0  0  0  0  0  0  0  0  0  0
   -1.4893   -3.1863    0.0000 N   0  0  0  0  0  0  0  0  0  0  0  0
   -0.5014   -5.8266    0.0000 O   0  0  0  0  0  0  0  0  0  0  0  0
    1.4888   -6.3956    0.0000 H   0  0  0  0  0  0  0  0  0  0  0  0
    3.7790   -6.2779    0.0000 H   0  0  0  0  0  0  0  0  0  0  0  0
    2.2925   -7.7913    0.0000 H   0  0  0  0  0  0  0  0  0  0  0  0
    3.7452   -5.0386    0.0000 H   0  0  0  0  0  0  0  0  0  0  0  0
    0.9771   -5.8401    0.0000 H   0  0  0  0  0  0  0  0  0  0  0  0
   -1.2714   -4.9574    0.0000 H   0  0  0  0  0  0  0  0  0  0  0  0
   -1.1626   -2.2633    0.0000 H   0  0  0  0  0  0  0  0  0  0  0  0
    0.6668   -1.0520    0.0000 H   0  0  0  0  0  0  0  0  0  0  0  0
    3.1671   -1.6385    0.0000 H   0  0  0  0  0  0  0  0  0  0  0  0
    3.3261   -0.6875    0.0000 H   0  0  0  0  0  0  0  0  0  0  0  0
    4.9870    1.3609    0.0000 H   0  0  0  0  0  0  0  0  0  0  0  0
    4.0378   -0.3177    0.0000 H   0  0  0  0  0  0  0  0  0  0  0  0
    1.2187    4.4659    0.0000 H   0  0  0  0  0  0  0  0  0  0  0  0
    2.9988    4.5908    0.0000 H   0  0  0  0  0  0  0  0  0  0  0  0
   -1.7240    5.5406    0.0000 H   0  0  0  0  0  0  0  0  0  0  0  0
   -8.1720    0.2327    0.0000 H   0  0  0  0  0  0  0  0  0  0  0  0
   -8.1988    3.2326    0.0000 H   0  0  0  0  0  0  0  0  0  0  0  0
   -5.6142    4.7558    0.0000 H   0  0  0  0  0  0  0  0  0  0  0  0
   -6.8529   -2.0056    0.0000 H   0  0  0  0  0  0  0  0  0  0  0  0
   -1.8028   -1.6238    0.0000 H   0  0  0  0  0  0  0  0  0  0  0  0
    5.2004    5.7497    0.0000 H   0  0  0  0  0  0  0  0  0  0  0  0
    6.2582    2.9962    0.0000 H   0  0  0  0  0  0  0  0  0  0  0  0
    6.9489    4.5486    0.0000 H   0  0  0  0  0  0  0  0  0  0  0  0
    6.0662    3.3726    0.0000 H   0  0  0  0  0  0  0  0  0  0  0  0
   -2.7815   -3.9479    0.0000 H   0  0  0  0  0  0  0  0  0  0  0  0
   -1.8652   -1.7342    0.0000 H   0  0  0  0  0  0  0  0  0  0  0  0
   -1.8874   -5.2529    0.0000 H   0  0  0  0  0  0  0  0  0  0  0  0
  1  2  1  0
  1 38  1  0
  1 39  1  0
  1 40  1  0
  2  3  1  0
  2  7  1  0
  2 41  1  6
  3  4  1  0
  3 37  1  0
  3 42  1  1
  4  5  1  0
  4 36  1  0
  4 43  1  6
  5  6  1  0
  5 44  1  0
  5 45  1  0
  6  7  1  0
  6  8  1  0
  6 46  1  6
  8  9  1  0
  9 10  1  0
  9 14  1  0
  9 47  1  6
 10 11  1  0
 10 48  1  0
 10 49  1  0
 11 12  1  0
 11 32  1  0
 11 35  1  6
 12 13  1  0
 12 50  1  0
 12 51  1  0
 13 14  2  0
 13 18  1  0
 14 15  1  0
 15 16  2  0
 15 31  1  0
 16 17  1  0
 16 24  1  0
 17 18  2  0
 17 20  1  0
 18 19  1  0
 19 52  1  0
 20 21  2  0
 20 22  1  0
 22 23  2  0
 22 29  1  0
 23 24  1  0
 23 26  1  0
 24 25  2  0
 26 27  2  0
 26 30  1  0
 27 28  1  0
 27 53  1  0
 28 29  2  0
 28 54  1  0
 29 55  1  0
 30 56  1  0
 31 57  1  0
 32 33  2  0
 32 34  1  0
 34 58  1  0
 34 59  1  0
 34 60  1  0
 35 61  1  0
 36 62  1  0
 36 63  1  0
 37 64  1  0
M  END
$$$$

     RDKit          2D

 63 67  0  0  1  0  0  0  0  0999 V2000
    4.5373   -4.9097    0.0000 C   0  0  0  0  0  0  0  0  0  0  0  0
    3.9198   -3.5427    0.0000 C   0  0  0  0  0  0  0  0  0  0  0  0
    2.6808   -4.3882    0.0000 C   0  0  0  0  0  0  0  0  0  0  0  0
    1.3291   -3.7380    0.0000 C   0  0  0  0  0  0  0  0  0  0  0  0
    1.2163   -2.2423    0.0000 C   0  0  0  0  0  0  0  0  0  0  0  0
    2.4553   -1.3967    0.0000 C   0  0  0  0  0  0  0  0  0  0  0  0
    3.8070   -2.0469    0.0000 O   0  0  0  0  0  0  0  0  0  0  0  0
    1.4075   -0.3234    0.0000 O   0  0  0  0  0  0  0  0  0  0  0  0
    1.8131    1.1207    0.0000 C   0  0  0  0  0  0  0  0  0  0  0  0
    2.6882    2.3390    0.0000 C   0  0  0  0  0  0  0  0  0  0  0  0
    2.0706    3.7060    0.0000 C   0  0  0  0  0  0  0  0  0  0  0  0
    0.5780    3.8547    0.0000 C   0  0  0  0  0  0  0  0  0  0  0  0
   -0.2971    2.6364    0.0000 C   0  0  0  0  0  0  0  0  0  0  0  0
    0.3205    1.2694    0.0000 C   0  0  0  0  0  0  0  0  0  0  0  0
   -0.5546    0.0511    0.0000 C   0  0  0  0  0  0  0  0  0  0  0  0
   -2.0472    0.1998    0.0000 C   0  0  0  0  0  0  0  0  0  0  0  0
   -2.6648    1.5668    0.0000 C   0  0  0  0  0  0  0  0  0  0  0  0
   -1.7897    2.7851    0.0000 C   0  0  0  0  0  0  0  0  0  0  0  0
   -2.4072    4.1521    0.0000 O   0  0  0  0  0  0  0  0  0  0  0  0
   -4.1574    1.7155    0.0000 C   0  0  0  0  0  0  0  0  0  0  0  0
   -4.7749    3.0825    0.0000 O   0  0  0  0  0  0  0  0  0  0  0  0
   -5.0324    0.4972    0.0000 C   0  0  0  0  0  0  0  0  0  0  0  0
   -6.5251    0.6459    0.0000 C   0  0  0  0  0  0  0  0  0  0  0  0
   -7.4001   -0.5724    0.0000 C   0  0  0  0  0  0  0  0  0  0  0  0
   -6.7826   -1.9394    0.0000 C   0  0  0  0  0  0  0  0  0  0  0  0
   -5.2900   -2.0881    0.0000 C   0  0  0  0  0  0  0  0  0  0  0  0
   -4.4149   -0.8698    0.0000 C   0  0  0  0  0  0  0  0  0  0  0  0
   -2.9223   -1.0185    0.0000 C   0  0  0  0  0  0  0  0  0  0  0  0
   -2.3047   -2.3855    0.0000 O   0  0  0  0  0  0  0  0  0  0  0  0
    0.0629   -1.3159    0.0000 O   0  0  0  0  0  0  0  0  0  0  0  0
    1.9578    5.2018    0.0000 C   0  0  0  0  0  0  0  0  0  0  0  0
    0.6954    6.0119    0.0000 O   0  0  0  0  0  0  0  0  0  0  0  0
    3.1968    6.0473    0.0000 C   0  0  0  0  0  0  0  0  0  0  0  0
    3.5241    4.0768    0.0000 O   0  0  0  0  0  0  0  0  0  0  0  0
   -0.1635   -3.5893    0.0000 N   0  0  0  0  0  0  0  0  0  0  0  0
    1.8058   -5.6065    0.0000 O   0  0  0  0  0  0  0  0  0  0  0  0
    3.8563   -5.3240    0.0000 H   0  0  0  0  0  0  0  0  0  0  0  0
    5.9043   -4.2921    0.0000 H   0  0  0  0  0  0  0  0  0  0  0  0
    5.1549   -6.2767    0.0000 H   0  0  0  0  0  0  0  0  0  0  0  0
    5.3733   -3.1719    0.0000 H   0  0  0  0  0  0  0  0  0  0  0  0
    3.1640   -5.0223    0.0000 H   0  0  0  0  0  0  0  0  0  0  0  0
    0.7505   -5.1219    0.0000 H   0  0  0  0  0  0  0  0  0  0  0  0
   -0.2371   -2.6130    0.0000 H   0  0  0  0  0  0  0  0  0  0  0  0
    0.9479   -0.7665    0.0000 H   0  0  0  0  0  0  0  0  0  0  0  0
    3.4723   -0.2942    0.0000 H   0  0  0  0  0  0  0  0  0  0  0  0
    3.2340    0.6401    0.0000 H   0  0  0  0  0  0  0  0  0  0  0  0
    3.9271    3.1846    0.0000 H   0  0  0  0  0  0  0  0  0  0  0  0
    3.7360    1.2657    0.0000 H   0  0  0  0  0  0  0  0  0  0  0  0
   -0.7737    4.5049    0.0000 H   0  0  0  0  0  0  0  0  0  0  0  0
    0.8046    5.3375    0.0000 H   0  0  0  0  0  0  0  0  0  0  0  0
   -3.8998    4.3008    0.0000 H   0  0  0  0  0  0  0  0  0  0  0  0
   -7.1426    2.0128    0.0000 H   0  0  0  0  0  0  0  0  0  0  0  0
   -8.8927   -0.4238    0.0000 H   0  0  0  0  0  0  0  0  0  0  0  0
   -7.6577   -3.1577    0.0000 H   0  0  0  0  0  0  0  0  0  0  0  0
   -4.6724   -3.4551    0.0000 H   0  0  0  0  0  0  0  0  0  0  0  0
   -1.0809   -2.2862    0.0000 H   0  0  0  0  0  0  0  0  0  0  0  0
    2.3513    7.2863    0.0000 H   0  0  0  0  0  0  0  0  0  0  0  0
    4.4303    5.1937    0.0000 H   0  0  0  0  0  0  0  0  0  0  0  0
    4.4358    6.8928    0.0000 H   0  0  0  0  0  0  0  0  0  0  0  0
    4.1027    5.4607    0.0000 H   0  0  0  0  0  0  0  0  0  0  0  0
   -1.0386   -4.8076    0.0000 H   0  0  0  0  0  0  0  0  0  0  0  0
   -1.0935   -2.4124    0.0000 H   0  0  0  0  0  0  0  0  0  0  0  0
    0.3061   -5.6409    0.0000 H   0  0  0  0  0  0  0  0  0  0  0  0
  1 37  1  0
  1 38  1  0
  1 39  1  0
  2  3  1  0
  2  7  1  0
  2 40  1  6
  2  1  1  0
  3  4  1  0
  3 41  1  6
  3 36  1  0
  4  5  1  0
  4 42  1  6
  4 35  1  0
  5  6  1  0
  5 43  1  0
  5 44  1  0
  6  7  1  0
  6  8  1  0
  6 45  1  1
  9 10  1  0
  9 14  1  0
  9 46  1  1
  9  8  1  0
 10 11  1  0
 10 47  1  0
 10 48  1  0
 11 12  1  0
 11 31  1  0
 11 34  1  6
 12 13  1  0
 12 49  1  0
 12 50  1  0
 13 14  2  0
 13 18  1  0
 14 15  1  0
 15 16  2  0
 15 30  1  0
 16 17  1  0
 16 28  1  0
 17 18  2  0
 17 20  1  0
 18 19  1  0
 19 51  1  0
 20 21  2  0
 20 22  1  0
 22 23  2  0
 22 27  1  0
 23 24  1  0
 23 52  1  0
 24 25  2  0
 24 53  1  0
 25 26  1  0
 25 54  1  0
 26 27  2  0
 26 55  1  0
 27 28  1  0
 28 29  2  0
 30 56  1  0
 31 32  2  0
 31 33  1  0
 33 57  1  0
 33 58  1  0
 33 59  1  0
 34 60  1  0
 35 61  1  0
 35 62  1  0
 36 63  1  0
M  END
$$$$

     RDKit          2D

 52 55  0  0  0  0  0  0  0  0999 V2000
    2.0080    1.4961    0.0000 C   0  0  0  0  0  0  0  0  0  0  0  0
    0.5424    1.1768    0.0000 C   0  0  0  0  0  0  0  0  0  0  0  0
    0.0860   -0.2521    0.0000 N   0  0  0  0  0  0  0  0  0  0  0  0
    1.0953   -1.3617    0.0000 C   0  0  0  0  0  0  0  0  0  0  0  0
    2.5609   -1.0425    0.0000 C   0  0  0  0  0  0  0  0  0  0  0  0
    3.0173    0.3864    0.0000 C   0  0  0  0  0  0  0  0  0  0  0  0
    4.3452   -0.3111    0.0000 N   0  0  0  0  0  0  0  0  0  0  0  0
    5.6901    0.3532    0.0000 C   0  0  0  0  0  0  0  0  0  0  0  0
    6.0963    1.7972    0.0000 C   0  0  0  0  0  0  0  0  0  0  0  0
    7.5499    2.1674    0.0000 C   0  0  0  0  0  0  0  0  0  0  0  0
    8.5973    1.0936    0.0000 C   0  0  0  0  0  0  0  0  0  0  0  0
    8.1911   -0.3503    0.0000 C   0  0  0  0  0  0  0  0  0  0  0  0
    6.7375   -0.7205    0.0000 C   0  0  0  0  0  0  0  0  0  0  0  0
    6.0400   -2.0485    0.0000 N   0  0  0  0  0  0  0  0  0  0  0  0
    4.5615   -1.7955    0.0000 C   0  0  0  0  0  0  0  0  0  0  0  0
    3.4877   -2.8429    0.0000 S   0  0  0  0  0  0  0  0  0  0  0  0
   -1.3796   -0.5713    0.0000 C   0  0  0  0  0  0  0  0  0  0  0  0
   -2.8452   -0.8906    0.0000 C   0  0  0  0  0  0  0  0  0  0  0  0
   -4.3109   -1.2098    0.0000 C   0  0  0  0  0  0  0  0  0  0  0  0
   -5.7765   -1.5290    0.0000 C   0  0  0  0  0  0  0  0  0  0  0  0
   -6.2329   -2.9579    0.0000 O   0  0  0  0  0  0  0  0  0  0  0  0
   -6.7858   -0.4194    0.0000 C   0  0  0  0  0  0  0  0  0  0  0  0
   -6.3295    1.0095    0.0000 C   0  0  0  0  0  0  0  0  0  0  0  0
   -7.3387    2.1192    0.0000 C   0  0  0  0  0  0  0  0  0  0  0  0
   -8.8044    1.7999    0.0000 C   0  0  0  0  0  0  0  0  0  0  0  0
   -9.2607    0.3710    0.0000 C   0  0  0  0  0  0  0  0  0  0  0  0
   -8.2514   -0.7386    0.0000 C   0  0  0  0  0  0  0  0  0  0  0  0
   -9.8137    2.9096    0.0000 F   0  0  0  0  0  0  0  0  0  0  0  0
    3.2761    2.2973    0.0000 H   0  0  0  0  0  0  0  0  0  0  0  0
    1.4391    2.8840    0.0000 H   0  0  0  0  0  0  0  0  0  0  0  0
    0.4825    2.6756    0.0000 H   0  0  0  0  0  0  0  0  0  0  0  0
   -0.9084    1.5578    0.0000 H   0  0  0  0  0  0  0  0  0  0  0  0
   -0.0656   -2.3116    0.0000 H   0  0  0  0  0  0  0  0  0  0  0  0
    1.6642   -2.7497    0.0000 H   0  0  0  0  0  0  0  0  0  0  0  0
    2.6208   -2.5413    0.0000 H   0  0  0  0  0  0  0  0  0  0  0  0
    3.6897   -1.4920    0.0000 H   0  0  0  0  0  0  0  0  0  0  0  0
    3.9348    1.5731    0.0000 H   0  0  0  0  0  0  0  0  0  0  0  0
    5.0489    2.8709    0.0000 H   0  0  0  0  0  0  0  0  0  0  0  0
    7.9561    3.6113    0.0000 H   0  0  0  0  0  0  0  0  0  0  0  0
   10.0509    1.4638    0.0000 H   0  0  0  0  0  0  0  0  0  0  0  0
    9.2385   -1.4241    0.0000 H   0  0  0  0  0  0  0  0  0  0  0  0
    6.7043   -3.3934    0.0000 H   0  0  0  0  0  0  0  0  0  0  0  0
   -1.2414   -2.0649    0.0000 H   0  0  0  0  0  0  0  0  0  0  0  0
   -1.8751    0.8445    0.0000 H   0  0  0  0  0  0  0  0  0  0  0  0
   -3.1645    0.5751    0.0000 H   0  0  0  0  0  0  0  0  0  0  0  0
   -2.5260   -2.3562    0.0000 H   0  0  0  0  0  0  0  0  0  0  0  0
   -4.6301    0.2558    0.0000 H   0  0  0  0  0  0  0  0  0  0  0  0
   -3.9916   -2.6754    0.0000 H   0  0  0  0  0  0  0  0  0  0  0  0
   -4.8638    1.3288    0.0000 H   0  0  0  0  0  0  0  0  0  0  0  0
   -6.8824    3.5481    0.0000 H   0  0  0  0  0  0  0  0  0  0  0  0
  -10.7264    0.0518    0.0000 H   0  0  0  0  0  0  0  0  0  0  0  0
   -8.7078   -2.1675    0.0000 H   0  0  0  0  0  0  0  0  0  0  0  0
  1  2  1  0
  1  6  1  0
  1 29  1  0
  1 30  1  0
  2  3  1  0
  2 31  1  0
  2 32  1  0
  3  4  1  0
  3 17  1  0
  4  5  1  0
  4 33  1  0
  4 34  1  0
  5  6  1  0
  5 35  1  0
  5 36  1  0
  6  7  1  0
  6 37  1  0
  7  8  1  0
  7 15  1  0
  8  9  2  0
  8 13  1  0
  9 10  1  0
  9 38  1  0
 10 11  2  0
 10 39  1  0
 11 12  1  0
 11 40  1  0
 12 13  2  0
 12 41  1  0
 13 14  1  0
 14 15  1  0
 14 42  1  0
 15 16  2  0
 17 18  1  0
 17 43  1  0
 17 44  1  0
 18 19  1  0
 18 45  1  0
 18 46  1  0
 19 20  1  0
 19 47  1  0
 19 48  1  0
 20 21  2  0
 20 22  1  0
 22 23  2  0
 22 27  1  0
 23 24  1  0
 23 49  1  0
 24 25  2  0
 24 50  1  0
 25 26  1  0
 25 28  1  0
 26 27  2  0
 26 51  1  0
 27 52  1  0
M  END
$$$$

     RDKit          2D

 54 57  0  0  1  0  0  0  0  0999 V2000
    1.0809    8.6319    0.0000 C   0  0  0  0  0  0  0  0  0  0  0  0
   -0.3603    9.0480    0.0000 S   0  0  0  0  0  0  0  0  0  0  0  0
    0.0557   10.4891    0.0000 O   0  0  0  0  0  0  0  0  0  0  0  0
   -0.7763    7.6068    0.0000 O   0  0  0  0  0  0  0  0  0  0  0  0
   -1.8014    9.4640    0.0000 O   0  0  0  0  0  0  0  0  0  0  0  0
   -3.4433   -2.1138    0.0000 C   0  0  0  0  0  0  0  0  0  0  0  0
   -4.7403   -1.3603    0.0000 C   0  0  0  0  0  0  0  0  0  0  0  0
   -4.4246    0.1061    0.0000 C   0  0  0  0  0  0  0  0  0  0  0  0
   -5.8524   -0.3537    0.0000 C   0  0  0  0  0  0  0  0  0  0  0  0
   -6.5531    0.9726    0.0000 N   0  0  0  0  0  0  0  0  0  0  0  0
   -2.9324    0.2589    0.0000 C   0  0  0  0  0  0  0  0  0  0  0  0
   -2.3259   -1.1130    0.0000 N   0  0  0  0  0  0  0  0  0  0  0  0
   -0.8595   -1.4288    0.0000 C   0  0  0  0  0  0  0  0  0  0  0  0
   -0.3998   -2.8566    0.0000 C   0  0  0  0  0  0  0  0  0  0  0  0
    1.0666   -3.1724    0.0000 C   0  0  0  0  0  0  0  0  0  0  0  0
    2.0733   -2.0603    0.0000 C   0  0  0  0  0  0  0  0  0  0  0  0
    3.5396   -2.3761    0.0000 C   0  0  0  0  0  0  0  0  0  0  0  0
    3.9994   -3.8039    0.0000 O   0  0  0  0  0  0  0  0  0  0  0  0
    4.5463   -1.2640    0.0000 C   0  0  0  0  0  0  0  0  0  0  0  0
    4.0866    0.1638    0.0000 C   0  0  0  0  0  0  0  0  0  0  0  0
    2.6202    0.4795    0.0000 N   0  0  0  0  0  0  0  0  0  0  0  0
    1.6135   -0.6325    0.0000 C   0  0  0  0  0  0  0  0  0  0  0  0
    0.1471   -0.3167    0.0000 N   0  0  0  0  0  0  0  0  0  0  0  0
    2.1604    1.9074    0.0000 C   0  0  0  0  0  0  0  0  0  0  0  0
    3.1671    3.0194    0.0000 C   0  0  0  0  0  0  0  0  0  0  0  0
    2.7073    4.4472    0.0000 C   0  0  0  0  0  0  0  0  0  0  0  0
    1.2410    4.7630    0.0000 C   0  0  0  0  0  0  0  0  0  0  0  0
    0.2343    3.6509    0.0000 C   0  0  0  0  0  0  0  0  0  0  0  0
    0.6940    2.2231    0.0000 C   0  0  0  0  0  0  0  0  0  0  0  0
    0.7812    6.1908    0.0000 F   0  0  0  0  0  0  0  0  0  0  0  0
    4.6335    2.7036    0.0000 F   0  0  0  0  0  0  0  0  0  0  0  0
    6.0127   -1.5798    0.0000 C   0  0  0  0  0  0  0  0  0  0  0  0
    7.0193   -0.4677    0.0000 O   0  0  0  0  0  0  0  0  0  0  0  0
    6.4724   -3.0076    0.0000 O   0  0  0  0  0  0  0  0  0  0  0  0
   -1.4064   -3.9687    0.0000 F   0  0  0  0  0  0  0  0  0  0  0  0
    0.6648    7.1908    0.0000 H   0  0  0  0  0  0  0  0  0  0  0  0
    1.4969   10.0731    0.0000 H   0  0  0  0  0  0  0  0  0  0  0  0
    2.5220    8.2159    0.0000 H   0  0  0  0  0  0  0  0  0  0  0  0
   -2.8823    8.4239    0.0000 H   0  0  0  0  0  0  0  0  0  0  0  0
   -4.3282   -3.3250    0.0000 H   0  0  0  0  0  0  0  0  0  0  0  0
   -2.3312   -3.1204    0.0000 H   0  0  0  0  0  0  0  0  0  0  0  0
   -5.6252   -2.5715    0.0000 H   0  0  0  0  0  0  0  0  0  0  0  0
   -4.7325    1.5741    0.0000 H   0  0  0  0  0  0  0  0  0  0  0  0
   -7.0368   -1.2740    0.0000 H   0  0  0  0  0  0  0  0  0  0  0  0
   -8.0520    1.0289    0.0000 H   0  0  0  0  0  0  0  0  0  0  0  0
   -5.7548    2.2426    0.0000 H   0  0  0  0  0  0  0  0  0  0  0  0
   -1.5046    0.7186    0.0000 H   0  0  0  0  0  0  0  0  0  0  0  0
   -3.2403    1.7269    0.0000 H   0  0  0  0  0  0  0  0  0  0  0  0
    1.5263   -4.6002    0.0000 H   0  0  0  0  0  0  0  0  0  0  0  0
    5.0932    1.2758    0.0000 H   0  0  0  0  0  0  0  0  0  0  0  0
    3.7140    5.5593    0.0000 H   0  0  0  0  0  0  0  0  0  0  0  0
   -1.2321    3.9667    0.0000 H   0  0  0  0  0  0  0  0  0  0  0  0
   -0.3126    1.1111    0.0000 H   0  0  0  0  0  0  0  0  0  0  0  0
    7.9388   -3.3234    0.0000 H   0  0  0  0  0  0  0  0  0  0  0  0
  1  2  1  0
  1 36  1  0
  1 37  1  0
  1 38  1  0
  2  3  2  0
  2  4  2  0
  2  5  1  0
  5 39  1  0
  6  7  1  0
  6 12  1  0
  6 40  1  0
  6 41  1  0
  7  8  1  0
  7  9  1  0
  7 42  1  6
  8  9  1  0
  8 11  1  0
  8 43  1  6
  9 10  1  0
  9 44  1  6
 10 45  1  0
 10 46  1  0
 11 12  1  0
 11 47  1  0
 11 48  1  0
 12 13  1  0
 13 14  2  0
 13 23  1  0
 14 15  1  0
 14 35  1  0
 15 16  2  0
 15 49  1  0
 16 17  1  0
 16 22  1  0
 17 18  2  0
 17 19  1  0
 19 20  2  0
 19 32  1  0
 20 21  1  0
 20 50  1  0
 21 22  1  0
 21 24  1  0
 22 23  2  0
 24 25  2  0
 24 29  1  0
 25 26  1  0
 25 31  1  0
 26 27  2  0
 26 51  1  0
 27 28  1  0
 27 30  1  0
 28 29  2  0
 28 52  1  0
 29 53  1  0
 32 33  2  0
 32 34  1  0
 34 54  1  0
M  END
$$$$

     RDKit          2D

 44 47  0  0  0  0  0  0  0  0999 V2000
   -5.7970    0.1811    0.0000 C   0  0  0  0  0  0  0  0  0  0  0  0
   -4.9622   -1.0651    0.0000 C   0  0  0  0  0  0  0  0  0  0  0  0
   -4.1274   -2.3114    0.0000 C   0  0  0  0  0  0  0  0  0  0  0  0
   -3.7159   -0.2303    0.0000 C   0  0  0  0  0  0  0  0  0  0  0  0
   -3.8158    1.2663    0.0000 N   0  0  0  0  0  0  0  0  0  0  0  0
   -2.5695    2.1011    0.0000 C   0  0  0  0  0  0  0  0  0  0  0  0
   -2.3560    3.5858    0.0000 N   0  0  0  0  0  0  0  0  0  0  0  0
   -0.8779    3.8416    0.0000 C   0  0  0  0  0  0  0  0  0  0  0  0
   -0.1780    2.5149    0.0000 C   0  0  0  0  0  0  0  0  0  0  0  0
   -1.2234    1.4392    0.0000 N   0  0  0  0  0  0  0  0  0  0  0  0
   -1.1236   -0.0575    0.0000 N   0  0  0  0  0  0  0  0  0  0  0  0
   -2.3699   -0.8922    0.0000 C   0  0  0  0  0  0  0  0  0  0  0  0
    1.3067    2.3013    0.0000 C   0  0  0  0  0  0  0  0  0  0  0  0
    1.8642    0.9088    0.0000 C   0  0  0  0  0  0  0  0  0  0  0  0
    3.3489    0.6952    0.0000 C   0  0  0  0  0  0  0  0  0  0  0  0
    4.2762    1.8743    0.0000 C   0  0  0  0  0  0  0  0  0  0  0  0
    3.7187    3.2668    0.0000 C   0  0  0  0  0  0  0  0  0  0  0  0
    2.2340    3.4804    0.0000 C   0  0  0  0  0  0  0  0  0  0  0  0
    5.7609    1.6607    0.0000 F   0  0  0  0  0  0  0  0  0  0  0  0
    3.9063   -0.6974    0.0000 C   0  0  0  0  0  0  0  0  0  0  0  0
    2.9790   -1.8764    0.0000 C   0  0  0  0  0  0  0  0  0  0  0  0
    3.5365   -3.2690    0.0000 C   0  0  0  0  0  0  0  0  0  0  0  0
    5.0212   -3.4825    0.0000 C   0  0  0  0  0  0  0  0  0  0  0  0
    5.9485   -2.3035    0.0000 C   0  0  0  0  0  0  0  0  0  0  0  0
    5.3910   -0.9109    0.0000 C   0  0  0  0  0  0  0  0  0  0  0  0
    6.3183    0.2681    0.0000 F   0  0  0  0  0  0  0  0  0  0  0  0
    1.4943   -1.6629    0.0000 C   0  0  0  0  0  0  0  0  0  0  0  0
    0.0096   -1.4493    0.0000 N   0  0  0  0  0  0  0  0  0  0  0  0
   -6.2084   -1.8999    0.0000 O   0  0  0  0  0  0  0  0  0  0  0  0
   -7.1357   -0.4955    0.0000 H   0  0  0  0  0  0  0  0  0  0  0  0
   -4.7898    1.2927    0.0000 H   0  0  0  0  0  0  0  0  0  0  0  0
   -6.6318    1.4274    0.0000 H   0  0  0  0  0  0  0  0  0  0  0  0
   -5.3737   -3.1462    0.0000 H   0  0  0  0  0  0  0  0  0  0  0  0
   -3.2941   -2.0112    0.0000 H   0  0  0  0  0  0  0  0  0  0  0  0
   -3.2926   -3.5576    0.0000 H   0  0  0  0  0  0  0  0  0  0  0  0
   -0.2160    5.1876    0.0000 H   0  0  0  0  0  0  0  0  0  0  0  0
   -2.3109   -1.7760    0.0000 H   0  0  0  0  0  0  0  0  0  0  0  0
    0.9369   -0.2703    0.0000 H   0  0  0  0  0  0  0  0  0  0  0  0
    4.6460    4.4459    0.0000 H   0  0  0  0  0  0  0  0  0  0  0  0
    1.6766    4.8729    0.0000 H   0  0  0  0  0  0  0  0  0  0  0  0
    2.6092   -4.4480    0.0000 H   0  0  0  0  0  0  0  0  0  0  0  0
    5.5786   -4.8751    0.0000 H   0  0  0  0  0  0  0  0  0  0  0  0
    7.4332   -2.5170    0.0000 H   0  0  0  0  0  0  0  0  0  0  0  0
   -7.6252   -1.4070    0.0000 H   0  0  0  0  0  0  0  0  0  0  0  0
  1  2  1  0
  1 30  1  0
  1 31  1  0
  1 32  1  0
  2  3  1  0
  2  4  1  0
  2 29  1  0
  3 33  1  0
  3 34  1  0
  3 35  1  0
  4  5  2  0
  4 12  1  0
  5  6  1  0
  6  7  2  0
  6 10  1  0
  7  8  1  0
  8  9  2  0
  8 36  1  0
  9 10  1  0
  9 13  1  0
 10 11  1  0
 11 12  2  0
 12 37  1  0
 13 14  2  0
 13 18  1  0
 14 15  1  0
 14 38  1  0
 15 16  2  0
 15 20  1  0
 16 17  1  0
 16 19  1  0
 17 18  2  0
 17 39  1  0
 18 40  1  0
 20 21  2  0
 20 25  1  0
 21 22  1  0
 21 27  1  0
 22 23  2  0
 22 41  1  0
 23 24  1  0
 23 42  1  0
 24 25  2  0
 24 43  1  0
 25 26  1  0
 27 28  3  0
 29 44  1  0
M  END
$$$$

     RDKit          2D

 34 36  0  0  0  0  0  0  0  0999 V2000
   -6.5938    0.5201    0.0000 C   0  0  0  0  0  0  0  0  0  0  0  0
   -5.3274   -0.2838    0.0000 C   0  0  0  0  0  0  0  0  0  0  0  0
   -4.0610   -1.0877    0.0000 O   0  0  0  0  0  0  0  0  0  0  0  0
   -2.7316   -0.3930    0.0000 C   0  0  0  0  0  0  0  0  0  0  0  0
   -1.4652   -1.1969    0.0000 C   0  0  0  0  0  0  0  0  0  0  0  0
   -0.1358   -0.5021    0.0000 C   0  0  0  0  0  0  0  0  0  0  0  0
    1.1306   -1.3060    0.0000 C   0  0  0  0  0  0  0  0  0  0  0  0
    2.4600   -0.6112    0.0000 C   0  0  0  0  0  0  0  0  0  0  0  0
    2.5230    0.8875    0.0000 C   0  0  0  0  0  0  0  0  0  0  0  0
    3.8523    1.5822    0.0000 C   0  0  0  0  0  0  0  0  0  0  0  0
    5.1187    0.7783    0.0000 C   0  0  0  0  0  0  0  0  0  0  0  0
    5.0557   -0.7203    0.0000 C   0  0  0  0  0  0  0  0  0  0  0  0
    3.7263   -1.4151    0.0000 C   0  0  0  0  0  0  0  0  0  0  0  0
    6.4481    1.4731    0.0000 N   0  0  0  0  0  0  0  0  0  0  0  0
    1.2566    1.6914    0.0000 N   0  0  0  0  0  0  0  0  0  0  0  0
   -0.0728    0.9966    0.0000 C   0  0  0  0  0  0  0  0  0  0  0  0
   -1.3392    1.8005    0.0000 C   0  0  0  0  0  0  0  0  0  0  0  0
   -2.6686    1.1057    0.0000 C   0  0  0  0  0  0  0  0  0  0  0  0
    1.0676   -2.8047    0.0000 N   0  0  0  0  0  0  0  0  0  0  0  0
   -5.7899    1.7864    0.0000 H   0  0  0  0  0  0  0  0  0  0  0  0
   -7.3977   -0.7463    0.0000 H   0  0  0  0  0  0  0  0  0  0  0  0
   -7.8602    1.3239    0.0000 H   0  0  0  0  0  0  0  0  0  0  0  0
   -6.1313   -1.5502    0.0000 H   0  0  0  0  0  0  0  0  0  0  0  0
   -4.5235    0.9825    0.0000 H   0  0  0  0  0  0  0  0  0  0  0  0
   -1.5282   -2.6955    0.0000 H   0  0  0  0  0  0  0  0  0  0  0  0
    3.9153    3.0809    0.0000 H   0  0  0  0  0  0  0  0  0  0  0  0
    6.3221   -1.5242    0.0000 H   0  0  0  0  0  0  0  0  0  0  0  0
    3.6633   -2.9138    0.0000 H   0  0  0  0  0  0  0  0  0  0  0  0
    7.7145    0.6692    0.0000 H   0  0  0  0  0  0  0  0  0  0  0  0
    6.5111    2.9718    0.0000 H   0  0  0  0  0  0  0  0  0  0  0  0
   -1.2762    3.2992    0.0000 H   0  0  0  0  0  0  0  0  0  0  0  0
   -3.9350    1.9096    0.0000 H   0  0  0  0  0  0  0  0  0  0  0  0
   -0.2618   -3.4994    0.0000 H   0  0  0  0  0  0  0  0  0  0  0  0
    2.3340   -3.6086    0.0000 H   0  0  0  0  0  0  0  0  0  0  0  0
  1  2  1  0
  1 20  1  0
  1 21  1  0
  1 22  1  0
  2  3  1  0
  2 23  1  0
  2 24  1  0
  3  4  1  0
  4  5  2  0
  4 18  1  0
  5  6  1  0
  5 25  1  0
  6  7  2  0
  6 16  1  0
  7  8  1  0
  7 19  1  0
  8  9  2  0
  8 13  1  0
  9 10  1  0
  9 15  1  0
 10 11  2  0
 10 26  1  0
 11 12  1  0
 11 14  1  0
 12 13  2  0
 12 27  1  0
 13 28  1  0
 14 29  1  0
 14 30  1  0
 15 16  2  0
 16 17  1  0
 17 18  2  0
 17 31  1  0
 18 32  1  0
 19 33  1  0
 19 34  1  0
M  END
$$$$

     RDKit          2D

 59 60  0  0  0  0  0  0  0  0999 V2000
    6.7500   -1.2990    0.0000 C   0  0  0  0  0  0  0  0  0  0  0  0
    6.0000    0.0000    0.0000 N   0  0  0  0  0  0  0  0  0  0  0  0
    6.7500    1.2990    0.0000 C   0  0  0  0  0  0  0  0  0  0  0  0
    4.5000   -0.0000    0.0000 C   0  0  0  0  0  0  0  0  0  0  0  0
    3.7500   -1.2990    0.0000 C   0  0  0  0  0  0  0  0  0  0  0  0
    2.2500   -1.2990    0.0000 C   0  0  0  0  0  0  0  0  0  0  0  0
    1.5000   -0.0000    0.0000 C   0  0  0  0  0  0  0  0  0  0  0  0
    2.2500    1.2990    0.0000 C   0  0  0  0  0  0  0  0  0  0  0  0
    3.7500    1.2990    0.0000 C   0  0  0  0  0  0  0  0  0  0  0  0
    0.0000   -0.0000    0.0000 C   0  0  0  0  0  0  0  0  0  0  0  0
   -0.7500   -1.2990    0.0000 C   0  0  0  0  0  0  0  0  0  0  0  0
   -2.2500   -1.2990    0.0000 C   0  0  0  0  0  0  0  0  0  0  0  0
   -3.0000   -2.5981    0.0000 C   0  0  0  0  0  0  0  0  0  0  0  0
   -2.2500   -3.8971    0.0000 C   0  0  0  0  0  0  0  0  0  0  0  0
   -3.0000   -5.1962    0.0000 N   0  0  0  0  0  0  0  0  0  0  0  0
   -2.2500   -6.4952    0.0000 C   0  0  0  0  0  0  0  0  0  0  0  0
   -4.5000   -5.1962    0.0000 C   0  0  0  0  0  0  0  0  0  0  0  0
   -0.7500   -3.8971    0.0000 C   0  0  0  0  0  0  0  0  0  0  0  0
   -0.0000   -2.5981    0.0000 C   0  0  0  0  0  0  0  0  0  0  0  0
   -0.7500    1.2990    0.0000 C   0  0  0  0  0  0  0  0  0  0  0  0
    0.0000    2.5981    0.0000 C   0  0  0  0  0  0  0  0  0  0  0  0
   -0.7500    3.8971    0.0000 C   0  0  0  0  0  0  0  0  0  0  0  0
   -2.2500    3.8971    0.0000 C   0  0  0  0  0  0  0  0  0  0  0  0
   -3.0000    2.5981    0.0000 C   0  0  0  0  0  0  0  0  0  0  0  0
   -2.2500    1.2990    0.0000 C   0  0  0  0  0  0  0  0  0  0  0  0
   -3.0000    5.1962    0.0000 N   0  0  0  0  0  0  0  0  0  0  0  0
   -4.5000    5.1962    0.0000 C   0  0  0  0  0  0  0  0  0  0  0  0
   -2.2500    6.4952    0.0000 C   0  0  0  0  0  0  0  0  0  0  0  0
    9.0490    0.0000    0.0000 Cl  0  0  0  0  0  0  0  0  0  0  0  0
    8.0490   -0.5490    0.0000 H   0  0  0  0  0  0  0  0  0  0  0  0
    5.4510   -2.0490    0.0000 H   0  0  0  0  0  0  0  0  0  0  0  0
    7.5000   -2.5981    0.0000 H   0  0  0  0  0  0  0  0  0  0  0  0
    8.0490    0.5490    0.0000 H   0  0  0  0  0  0  0  0  0  0  0  0
    5.4510    2.0490    0.0000 H   0  0  0  0  0  0  0  0  0  0  0  0
    7.5000    2.5981    0.0000 H   0  0  0  0  0  0  0  0  0  0  0  0
    4.5000   -2.5981    0.0000 H   0  0  0  0  0  0  0  0  0  0  0  0
    1.8655   -2.2050    0.0000 H   0  0  0  0  0  0  0  0  0  0  0  0
    1.8655    2.2050    0.0000 H   0  0  0  0  0  0  0  0  0  0  0  0
    4.5000    2.5981    0.0000 H   0  0  0  0  0  0  0  0  0  0  0  0
   -2.8423   -0.5131    0.0000 H   0  0  0  0  0  0  0  0  0  0  0  0
   -4.5000   -2.5981    0.0000 H   0  0  0  0  0  0  0  0  0  0  0  0
   -3.5490   -7.2452    0.0000 H   0  0  0  0  0  0  0  0  0  0  0  0
   -0.9510   -5.7452    0.0000 H   0  0  0  0  0  0  0  0  0  0  0  0
   -1.5000   -7.7942    0.0000 H   0  0  0  0  0  0  0  0  0  0  0  0
   -4.5000   -6.6962    0.0000 H   0  0  0  0  0  0  0  0  0  0  0  0
   -4.5000   -3.6962    0.0000 H   0  0  0  0  0  0  0  0  0  0  0  0
   -6.0000   -5.1962    0.0000 H   0  0  0  0  0  0  0  0  0  0  0  0
   -0.0000   -5.1962    0.0000 H   0  0  0  0  0  0  0  0  0  0  0  0
    0.9768   -2.7180    0.0000 H   0  0  0  0  0  0  0  0  0  0  0  0
    0.9768    2.7180    0.0000 H   0  0  0  0  0  0  0  0  0  0  0  0
    0.0000    5.1962    0.0000 H   0  0  0  0  0  0  0  0  0  0  0  0
   -4.5000    2.5981    0.0000 H   0  0  0  0  0  0  0  0  0  0  0  0
   -2.8423    0.5131    0.0000 H   0  0  0  0  0  0  0  0  0  0  0  0
   -4.5000    6.6962    0.0000 H   0  0  0  0  0  0  0  0  0  0  0  0
   -4.5000    3.6962    0.0000 H   0  0  0  0  0  0  0  0  0  0  0  0
   -6.0000    5.1962    0.0000 H   0  0  0  0  0  0  0  0  0  0  0  0
   -3.5490    7.2452    0.0000 H   0  0  0  0  0  0  0  0  0  0  0  0
   -0.9510    5.7452    0.0000 H   0  0  0  0  0  0  0  0  0  0  0  0
   -1.5000    7.7942    0.0000 H   0  0  0  0  0  0  0  0  0  0  0  0
  1  2  1  0
  1 30  1  0
  1 31  1  0
  1 32  1  0
  2  3  1  0
  2  4  1  0
  3 33  1  0
  3 34  1  0
  3 35  1  0
  4  5  2  0
  4  9  1  0
  5  6  1  0
  5 36  1  0
  6  7  2  0
  6 37  1  0
  7  8  1  0
  7 10  1  0
  8  9  2  0
  8 38  1  0
  9 39  1  0
 10 11  2  0
 10 20  1  0
 11 12  1  0
 11 19  1  0
 12 13  2  0
 12 40  1  0
 13 14  1  0
 13 41  1  0
 14 15  2  0
 14 18  1  0
 15 16  1  0
 15 17  1  0
 16 42  1  0
 16 43  1  0
 16 44  1  0
 17 45  1  0
 17 46  1  0
 17 47  1  0
 18 19  2  0
 18 48  1  0
 19 49  1  0
 20 21  2  0
 20 25  1  0
 21 22  1  0
 21 50  1  0
 22 23  2  0
 22 51  1  0
 23 24  1  0
 23 26  1  0
 24 25  2  0
 24 52  1  0
 25 53  1  0
 26 27  1  0
 26 28  1  0
 27 54  1  0
 27 55  1  0
 27 56  1  0
 28 57  1  0
 28 58  1  0
 28 59  1  0
M  CHG  2  15   1  29  -1
M  END
$$$$

     RDKit          2D

 39 40  0  0  0  0  0  0  0  0999 V2000
   -5.1962    2.1711    0.0000 C   0  0  0  0  0  0  0  0  0  0  0  0
   -5.1962    0.6711    0.0000 N   0  0  0  0  0  0  0  0  0  0  0  0
   -6.4952   -0.0789    0.0000 C   0  0  0  0  0  0  0  0  0  0  0  0
   -3.8971   -0.0789    0.0000 C   0  0  0  0  0  0  0  0  0  0  0  0
   -2.5981    0.6711    0.0000 C   0  0  0  0  0  0  0  0  0  0  0  0
   -1.2990   -0.0789    0.0000 C   0  0  0  0  0  0  0  0  0  0  0  0
   -1.2990   -1.5789    0.0000 C   0  0  0  0  0  0  0  0  0  0  0  0
   -2.5981   -2.3289    0.0000 C   0  0  0  0  0  0  0  0  0  0  0  0
   -3.8971   -1.5789    0.0000 C   0  0  0  0  0  0  0  0  0  0  0  0
    0.0000   -2.3289    0.0000 N   0  0  0  0  0  0  0  0  0  0  0  0
    1.2990   -1.5789    0.0000 C   0  0  0  0  0  0  0  0  0  0  0  0
    2.5981   -2.3289    0.0000 C   0  0  0  0  0  0  0  0  0  0  0  0
    3.8971   -1.5789    0.0000 C   0  0  0  0  0  0  0  0  0  0  0  0
    3.8971   -0.0789    0.0000 C   0  0  0  0  0  0  0  0  0  0  0  0
    5.1962    0.6711    0.0000 N   0  0  0  0  0  0  0  0  0  0  0  0
    6.4952   -0.0789    0.0000 C   0  0  0  0  0  0  0  0  0  0  0  0
    5.1962    2.1711    0.0000 C   0  0  0  0  0  0  0  0  0  0  0  0
    2.5981    0.6711    0.0000 C   0  0  0  0  0  0  0  0  0  0  0  0
    1.2990   -0.0789    0.0000 C   0  0  0  0  0  0  0  0  0  0  0  0
   -0.0000    0.6711    0.0000 S   0  0  0  0  0  0  0  0  0  0  0  0
    0.0000    4.6711    0.0000 Cl  0  0  0  0  0  0  0  0  0  0  0  0
   -6.6962    2.1711    0.0000 H   0  0  0  0  0  0  0  0  0  0  0  0
   -3.6962    2.1711    0.0000 H   0  0  0  0  0  0  0  0  0  0  0  0
   -5.1962    3.6711    0.0000 H   0  0  0  0  0  0  0  0  0  0  0  0
   -7.2452    1.2201    0.0000 H   0  0  0  0  0  0  0  0  0  0  0  0
   -5.7452   -1.3780    0.0000 H   0  0  0  0  0  0  0  0  0  0  0  0
   -7.7942   -0.8289    0.0000 H   0  0  0  0  0  0  0  0  0  0  0  0
   -2.5981    2.1711    0.0000 H   0  0  0  0  0  0  0  0  0  0  0  0
   -2.5981   -3.8289    0.0000 H   0  0  0  0  0  0  0  0  0  0  0  0
   -5.1962   -2.3289    0.0000 H   0  0  0  0  0  0  0  0  0  0  0  0
    2.5981   -3.8289    0.0000 H   0  0  0  0  0  0  0  0  0  0  0  0
    5.1962   -2.3289    0.0000 H   0  0  0  0  0  0  0  0  0  0  0  0
    7.2452    1.2201    0.0000 H   0  0  0  0  0  0  0  0  0  0  0  0
    5.7452   -1.3780    0.0000 H   0  0  0  0  0  0  0  0  0  0  0  0
    7.7942   -0.8289    0.0000 H   0  0  0  0  0  0  0  0  0  0  0  0
    6.6962    2.1711    0.0000 H   0  0  0  0  0  0  0  0  0  0  0  0
    3.6962    2.1711    0.0000 H   0  0  0  0  0  0  0  0  0  0  0  0
    5.1962    3.6711    0.0000 H   0  0  0  0  0  0  0  0  0  0  0  0
    2.5981    2.1711    0.0000 H   0  0  0  0  0  0  0  0  0  0  0  0
  1  2  1  0
  1 22  1  0
  1 23  1  0
  1 24  1  0
  2  3  1  0
  2  4  1  0
  3 25  1  0
  3 26  1  0
  3 27  1  0
  4  5  2  0
  4  9  1  0
  5  6  1  0
  5 28  1  0
  6  7  2  0
  6 20  1  0
  7  8  1  0
  7 10  1  0
  8  9  2  0
  8 29  1  0
  9 30  1  0
 10 11  2  0
 11 12  1  0
 11 19  1  0
 12 13  2  0
 12 31  1  0
 13 14  1  0
 13 32  1  0
 14 15  2  0
 14 18  1  0
 15 16  1  0
 15 17  1  0
 16 33  1  0
 16 34  1  0
 16 35  1  0
 17 36  1  0
 17 37  1  0
 17 38  1  0
 18 19  2  0
 18 39  1  0
 19 20  1  0
M  CHG  2  15   1  21  -1
M  END
$$$$

     RDKit          2D

 55 57  0  0  1  0  0  0  0  0999 V2000
    0.3127   -3.3555    0.0000 C   0  0  0  0  0  0  0  0  0  0  0  0
   -0.4196   -2.0465    0.0000 C   0  0  0  0  0  0  0  0  0  0  0  0
   -1.7287   -2.7788    0.0000 C   0  0  0  0  0  0  0  0  0  0  0  0
    0.8895   -1.3141    0.0000 N   0  0  0  0  0  0  0  0  0  0  0  0
    2.2514   -1.9428    0.0000 C   0  0  0  0  0  0  0  0  0  0  0  0
    2.6955   -3.3755    0.0000 C   0  0  0  0  0  0  0  0  0  0  0  0
    4.1584   -3.7073    0.0000 C   0  0  0  0  0  0  0  0  0  0  0  0
    5.1771   -2.6063    0.0000 C   0  0  0  0  0  0  0  0  0  0  0  0
    4.7330   -1.1735    0.0000 C   0  0  0  0  0  0  0  0  0  0  0  0
    3.2701   -0.8418    0.0000 C   0  0  0  0  0  0  0  0  0  0  0  0
    2.5378    0.4673    0.0000 C   0  0  0  0  0  0  0  0  0  0  0  0
    1.0665    0.1754    0.0000 C   0  0  0  0  0  0  0  0  0  0  0  0
   -0.0345    1.1941    0.0000 C   0  0  0  0  0  0  0  0  0  0  0  0
   -1.4673    0.7500    0.0000 C   0  0  0  0  0  0  0  0  0  0  0  0
   -2.5683    1.7687    0.0000 C   0  0  0  0  0  0  0  0  0  0  0  0
   -3.5870    0.6677    0.0000 C   0  0  0  0  0  0  0  0  0  0  0  0
   -4.6057   -0.4333    0.0000 C   0  0  0  0  0  0  0  0  0  0  0  0
   -5.7067    0.5854    0.0000 C   0  0  0  0  0  0  0  0  0  0  0  0
   -6.8077    1.6042    0.0000 C   0  0  0  0  0  0  0  0  0  0  0  0
   -6.4760    3.0670    0.0000 O   0  0  0  0  0  0  0  0  0  0  0  0
   -8.2404    1.1600    0.0000 O   0  0  0  0  0  0  0  0  0  0  0  0
   -3.5047   -1.4520    0.0000 O   0  0  0  0  0  0  0  0  0  0  0  0
   -3.6693    2.7874    0.0000 O   0  0  0  0  0  0  0  0  0  0  0  0
    3.1664    1.8292    0.0000 C   0  0  0  0  0  0  0  0  0  0  0  0
    4.6602    1.9658    0.0000 C   0  0  0  0  0  0  0  0  0  0  0  0
    5.2889    3.3277    0.0000 C   0  0  0  0  0  0  0  0  0  0  0  0
    4.4237    4.5531    0.0000 C   0  0  0  0  0  0  0  0  0  0  0  0
    2.9299    4.4165    0.0000 C   0  0  0  0  0  0  0  0  0  0  0  0
    2.3013    3.0546    0.0000 C   0  0  0  0  0  0  0  0  0  0  0  0
    5.0524    5.9150    0.0000 F   0  0  0  0  0  0  0  0  0  0  0  0
   -0.4019   -3.8790    0.0000 H   0  0  0  0  0  0  0  0  0  0  0  0
    1.6218   -2.6232    0.0000 H   0  0  0  0  0  0  0  0  0  0  0  0
    0.8800   -4.7441    0.0000 H   0  0  0  0  0  0  0  0  0  0  0  0
   -1.0658   -1.1643    0.0000 H   0  0  0  0  0  0  0  0  0  0  0  0
   -1.3938   -3.5987    0.0000 H   0  0  0  0  0  0  0  0  0  0  0  0
   -2.4610   -1.4697    0.0000 H   0  0  0  0  0  0  0  0  0  0  0  0
   -3.0378   -3.5111    0.0000 H   0  0  0  0  0  0  0  0  0  0  0  0
    1.8186   -4.5925    0.0000 H   0  0  0  0  0  0  0  0  0  0  0  0
    4.6025   -5.1400    0.0000 H   0  0  0  0  0  0  0  0  0  0  0  0
    6.6399   -2.9380    0.0000 H   0  0  0  0  0  0  0  0  0  0  0  0
    5.8783   -0.2049    0.0000 H   0  0  0  0  0  0  0  0  0  0  0  0
    0.1013    2.5372    0.0000 H   0  0  0  0  0  0  0  0  0  0  0  0
   -1.7091   -0.3165    0.0000 H   0  0  0  0  0  0  0  0  0  0  0  0
   -1.5495    2.8697    0.0000 H   0  0  0  0  0  0  0  0  0  0  0  0
   -4.1589    1.3440    0.0000 H   0  0  0  0  0  0  0  0  0  0  0  0
   -2.6184   -0.4776    0.0000 H   0  0  0  0  0  0  0  0  0  0  0  0
   -5.6244   -1.5343    0.0000 H   0  0  0  0  0  0  0  0  0  0  0  0
   -5.1889    1.3040    0.0000 H   0  0  0  0  0  0  0  0  0  0  0  0
   -6.7254   -0.5156    0.0000 H   0  0  0  0  0  0  0  0  0  0  0  0
   -3.8365   -2.9149    0.0000 H   0  0  0  0  0  0  0  0  0  0  0  0
   -3.3375    4.2503    0.0000 H   0  0  0  0  0  0  0  0  0  0  0  0
    5.6683    0.8550    0.0000 H   0  0  0  0  0  0  0  0  0  0  0  0
    6.7826    3.4642    0.0000 H   0  0  0  0  0  0  0  0  0  0  0  0
    2.0648    5.6419    0.0000 H   0  0  0  0  0  0  0  0  0  0  0  0
    0.9520    3.0965    0.0000 H   0  0  0  0  0  0  0  0  0  0  0  0
  1  2  1  0
  1 31  1  0
  1 32  1  0
  1 33  1  0
  2  3  1  0
  2  4  1  0
  2 34  1  0
  3 35  1  0
  3 36  1  0
  3 37  1  0
  4  5  1  0
  4 12  1  0
  5  6  2  0
  5 10  1  0
  6  7  1  0
  6 38  1  0
  7  8  2  0
  7 39  1  0
  8  9  1  0
  8 40  1  0
  9 10  2  0
  9 41  1  0
 10 11  1  0
 11 12  2  0
 11 24  1  0
 12 13  1  0
 13 14  2  0
 13 42  1  0
 14 15  1  0
 14 43  1  0
 15 16  1  0
 15 23  1  0
 15 44  1  6
 16 17  1  0
 16 45  1  0
 16 46  1  0
 17 18  1  0
 17 22  1  0
 17 47  1  1
 18 19  1  0
 18 48  1  0
 18 49  1  0
 19 20  2  0
 19 21  1  0
 22 50  1  0
 23 51  1  0
 24 25  2  0
 24 29  1  0
 25 26  1  0
 25 52  1  0
 26 27  2  0
 26 53  1  0
 27 28  1  0
 27 30  1  0
 28 29  2  0
 28 54  1  0
 29 55  1  0
M  CHG  1  21  -1
M  END
$$$$

     RDKit          2D

 52 56  0  0  1  0  0  0  0  0999 V2000
    2.9045   -1.7609    0.0000 C   0  0  0  0  0  0  0  0  0  0  0  0
    2.1092   -0.4891    0.0000 C   0  0  0  0  0  0  0  0  0  0  0  0
    1.2709   -1.7329    0.0000 C   0  0  0  0  0  0  0  0  0  0  0  0
   -0.2255   -1.6288    0.0000 C   0  0  0  0  0  0  0  0  0  0  0  0
   -0.8835   -0.2809    0.0000 C   0  0  0  0  0  0  0  0  0  0  0  0
   -0.0452    0.9630    0.0000 C   0  0  0  0  0  0  0  0  0  0  0  0
    1.4512    0.8589    0.0000 C   0  0  0  0  0  0  0  0  0  0  0  0
    2.5298    1.9013    0.0000 C   0  0  0  0  0  0  0  0  0  0  0  0
    3.8545    1.1975    0.0000 C   0  0  0  0  0  0  0  0  0  0  0  0
    3.5945   -0.2798    0.0000 C   0  0  0  0  0  0  0  0  0  0  0  0
    5.0909   -0.3839    0.0000 C   0  0  0  0  0  0  0  0  0  0  0  0
    6.5873   -0.4880    0.0000 C   0  0  0  0  0  0  0  0  0  0  0  0
    3.6474   -1.7788    0.0000 O   0  0  0  0  0  0  0  0  0  0  0  0
   -0.7032    2.3110    0.0000 C   0  0  0  0  0  0  0  0  0  0  0  0
   -2.1996    2.4151    0.0000 C   0  0  0  0  0  0  0  0  0  0  0  0
   -3.0380    1.1712    0.0000 C   0  0  0  0  0  0  0  0  0  0  0  0
   -4.5343    1.2753    0.0000 C   0  0  0  0  0  0  0  0  0  0  0  0
   -5.3727    0.0315    0.0000 C   0  0  0  0  0  0  0  0  0  0  0  0
   -4.7147   -1.3165    0.0000 C   0  0  0  0  0  0  0  0  0  0  0  0
   -3.2183   -1.4206    0.0000 C   0  0  0  0  0  0  0  0  0  0  0  0
   -2.3799   -0.1767    0.0000 C   0  0  0  0  0  0  0  0  0  0  0  0
   -1.5416    1.0671    0.0000 C   0  0  0  0  0  0  0  0  0  0  0  0
   -5.7933   -2.3589    0.0000 C   0  0  0  0  0  0  0  0  0  0  0  0
   -7.1180   -1.6551    0.0000 N   0  0  0  0  0  0  0  0  0  0  0  0
   -6.8580   -0.1778    0.0000 O   0  0  0  0  0  0  0  0  0  0  0  0
    1.6328   -2.5562    0.0000 H   0  0  0  0  0  0  0  0  0  0  0  0
    4.1763   -0.9655    0.0000 H   0  0  0  0  0  0  0  0  0  0  0  0
    3.6999   -3.0326    0.0000 H   0  0  0  0  0  0  0  0  0  0  0  0
    0.9085   -3.1885    0.0000 H   0  0  0  0  0  0  0  0  0  0  0  0
    2.4532   -2.6561    0.0000 H   0  0  0  0  0  0  0  0  0  0  0  0
   -1.5242   -2.3793    0.0000 H   0  0  0  0  0  0  0  0  0  0  0  0
   -0.0682   -3.1205    0.0000 H   0  0  0  0  0  0  0  0  0  0  0  0
   -1.7219   -1.5247    0.0000 H   0  0  0  0  0  0  0  0  0  0  0  0
    0.7932    2.2069    0.0000 H   0  0  0  0  0  0  0  0  0  0  0  0
    2.8422    0.2975    0.0000 H   0  0  0  0  0  0  0  0  0  0  0  0
    1.6478    3.1145    0.0000 H   0  0  0  0  0  0  0  0  0  0  0  0
    3.3682    3.1451    0.0000 H   0  0  0  0  0  0  0  0  0  0  0  0
    4.4159    2.5885    0.0000 H   0  0  0  0  0  0  0  0  0  0  0  0
    5.2965    0.7846    0.0000 H   0  0  0  0  0  0  0  0  0  0  0  0
    8.0837   -0.5921    0.0000 H   0  0  0  0  0  0  0  0  0  0  0  0
    4.9721   -2.4826    0.0000 H   0  0  0  0  0  0  0  0  0  0  0  0
   -0.8605    3.8027    0.0000 H   0  0  0  0  0  0  0  0  0  0  0  0
    0.5955    3.0615    0.0000 H   0  0  0  0  0  0  0  0  0  0  0  0
   -3.5701    3.0247    0.0000 H   0  0  0  0  0  0  0  0  0  0  0  0
   -1.8372    3.8706    0.0000 H   0  0  0  0  0  0  0  0  0  0  0  0
   -5.1924    2.6233    0.0000 H   0  0  0  0  0  0  0  0  0  0  0  0
   -2.0360   -2.3437    0.0000 H   0  0  0  0  0  0  0  0  0  0  0  0
   -3.5806   -2.8762    0.0000 H   0  0  0  0  0  0  0  0  0  0  0  0
   -2.2461    2.3914    0.0000 H   0  0  0  0  0  0  0  0  0  0  0  0
   -0.0497    0.9110    0.0000 H   0  0  0  0  0  0  0  0  0  0  0  0
   -1.0291    2.4769    0.0000 H   0  0  0  0  0  0  0  0  0  0  0  0
   -5.5840   -3.8442    0.0000 H   0  0  0  0  0  0  0  0  0  0  0  0
  1 26  1  0
  1 27  1  0
  1 28  1  0
  2  3  1  0
  2  7  1  0
  2 10  1  0
  2  1  1  1
  3  4  1  0
  3 29  1  0
  3 30  1  0
  4  5  1  0
  4 31  1  0
  4 32  1  0
  5  6  1  0
  5 21  1  0
  5 33  1  6
  6  7  1  0
  6 14  1  0
  6 34  1  1
  7  8  1  0
  7 35  1  6
  8  9  1  0
  8 36  1  0
  8 37  1  0
  9 10  1  0
  9 38  1  0
  9 39  1  0
 10 11  1  1
 10 13  1  0
 11 12  3  0
 12 40  1  0
 13 41  1  0
 14 15  1  0
 14 42  1  0
 14 43  1  0
 15 16  1  0
 15 44  1  0
 15 45  1  0
 16 17  2  0
 16 21  1  0
 17 18  1  0
 17 46  1  0
 18 19  2  0
 18 25  1  0
 19 20  1  0
 19 23  1  0
 20 21  1  0
 20 47  1  0
 20 48  1  0
 21 22  1  6
 22 49  1  0
 22 50  1  0
 22 51  1  0
 23 24  2  0
 23 52  1  0
 24 25  1  0
M  END
$$$$

     RDKit          2D

 49 49  0  0  0  0  0  0  0  0999 V2000
    1.6155   -2.4041    0.0000 C   0  0  0  0  0  0  0  0  0  0  0  0
    2.8722   -1.5850    0.0000 C   0  0  0  0  0  0  0  0  0  0  0  0
    2.7911   -0.0872    0.0000 C   0  0  0  0  0  0  0  0  0  0  0  0
    4.0477    0.7319    0.0000 C   0  0  0  0  0  0  0  0  0  0  0  0
    5.3854    0.0532    0.0000 C   0  0  0  0  0  0  0  0  0  0  0  0
    5.4664   -1.4446    0.0000 C   0  0  0  0  0  0  0  0  0  0  0  0
    4.2098   -2.2637    0.0000 C   0  0  0  0  0  0  0  0  0  0  0  0
    3.0229    1.8272    0.0000 C   0  0  0  0  0  0  0  0  0  0  0  0
    4.9484    1.9314    0.0000 C   0  0  0  0  0  0  0  0  0  0  0  0
    1.4535    0.5915    0.0000 C   0  0  0  0  0  0  0  0  0  0  0  0
    0.1968   -0.2276    0.0000 C   0  0  0  0  0  0  0  0  0  0  0  0
   -1.1408    0.4512    0.0000 C   0  0  0  0  0  0  0  0  0  0  0  0
   -2.3974   -0.3679    0.0000 C   0  0  0  0  0  0  0  0  0  0  0  0
   -3.7351    0.3108    0.0000 C   0  0  0  0  0  0  0  0  0  0  0  0
   -4.9917   -0.5083    0.0000 C   0  0  0  0  0  0  0  0  0  0  0  0
   -6.3294    0.1704    0.0000 C   0  0  0  0  0  0  0  0  0  0  0  0
   -7.5860   -0.6487    0.0000 C   0  0  0  0  0  0  0  0  0  0  0  0
   -7.5050   -2.1465    0.0000 C   0  0  0  0  0  0  0  0  0  0  0  0
   -6.1673   -2.8252    0.0000 O   0  0  0  0  0  0  0  0  0  0  0  0
   -6.4104    1.6682    0.0000 C   0  0  0  0  0  0  0  0  0  0  0  0
   -1.2219    1.9490    0.0000 C   0  0  0  0  0  0  0  0  0  0  0  0
    2.2753   -3.7512    0.0000 H   0  0  0  0  0  0  0  0  0  0  0  0
    0.6494   -1.2567    0.0000 H   0  0  0  0  0  0  0  0  0  0  0  0
    0.3589   -3.2232    0.0000 H   0  0  0  0  0  0  0  0  0  0  0  0
    5.9932    1.4245    0.0000 H   0  0  0  0  0  0  0  0  0  0  0  0
    6.8745   -0.1271    0.0000 H   0  0  0  0  0  0  0  0  0  0  0  0
    6.9274   -1.1047    0.0000 H   0  0  0  0  0  0  0  0  0  0  0  0
    6.0549   -2.8244    0.0000 H   0  0  0  0  0  0  0  0  0  0  0  0
    5.2347   -3.3590    0.0000 H   0  0  0  0  0  0  0  0  0  0  0  0
    3.4621   -3.5641    0.0000 H   0  0  0  0  0  0  0  0  0  0  0  0
    3.5342    2.4387    0.0000 H   0  0  0  0  0  0  0  0  0  0  0  0
    1.9612    1.2364    0.0000 H   0  0  0  0  0  0  0  0  0  0  0  0
    1.9980    2.9225    0.0000 H   0  0  0  0  0  0  0  0  0  0  0  0
    4.3741    2.4842    0.0000 H   0  0  0  0  0  0  0  0  0  0  0  0
    6.2488    1.1836    0.0000 H   0  0  0  0  0  0  0  0  0  0  0  0
    5.8491    3.1309    0.0000 H   0  0  0  0  0  0  0  0  0  0  0  0
    1.3724    2.0893    0.0000 H   0  0  0  0  0  0  0  0  0  0  0  0
    0.0947   -1.7241    0.0000 H   0  0  0  0  0  0  0  0  0  0  0  0
   -2.3164   -1.8657    0.0000 H   0  0  0  0  0  0  0  0  0  0  0  0
   -3.8162    1.8086    0.0000 H   0  0  0  0  0  0  0  0  0  0  0  0
   -4.9107   -2.0061    0.0000 H   0  0  0  0  0  0  0  0  0  0  0  0
   -8.9237    0.0301    0.0000 H   0  0  0  0  0  0  0  0  0  0  0  0
   -8.7616   -2.9656    0.0000 H   0  0  0  0  0  0  0  0  0  0  0  0
   -7.9082    1.5872    0.0000 H   0  0  0  0  0  0  0  0  0  0  0  0
   -4.9126    1.7493    0.0000 H   0  0  0  0  0  0  0  0  0  0  0  0
   -6.4915    3.1660    0.0000 H   0  0  0  0  0  0  0  0  0  0  0  0
   -2.7197    1.8679    0.0000 H   0  0  0  0  0  0  0  0  0  0  0  0
    0.2759    2.0300    0.0000 H   0  0  0  0  0  0  0  0  0  0  0  0
   -1.3029    3.4468    0.0000 H   0  0  0  0  0  0  0  0  0  0  0  0
  1  2  1  0
  1 22  1  0
  1 23  1  0
  1 24  1  0
  2  3  2  0
  2  7  1  0
  3  4  1  0
  3 10  1  0
  4  5  1  0
  4  8  1  0
  4  9  1  0
  5  6  1  0
  5 25  1  0
  5 26  1  0
  6  7  1  0
  6 27  1  0
  6 28  1  0
  7 29  1  0
  7 30  1  0
  8 31  1  0
  8 32  1  0
  8 33  1  0
  9 34  1  0
  9 35  1  0
  9 36  1  0
 10 11  2  0
 10 37  1  0
 11 12  1  0
 11 38  1  0
 12 13  2  0
 12 21  1  0
 13 14  1  0
 13 39  1  0
 14 15  2  0
 14 40  1  0
 15 16  1  0
 15 41  1  0
 16 17  2  0
 16 20  1  0
 17 18  1  0
 17 42  1  0
 18 19  2  0
 18 43  1  0
 20 44  1  0
 20 45  1  0
 20 46  1  0
 21 47  1  0
 21 48  1  0
 21 49  1  0
M  END
$$$$

     RDKit          2D

 48 51  0  0  1  0  0  0  0  0999 V2000
    6.2846   -0.4024    0.0000 C   0  0  0  0  0  0  0  0  0  0  0  0
    5.2445    0.6784    0.0000 C   0  0  0  0  0  0  0  0  0  0  0  0
    5.6604    2.1196    0.0000 C   0  0  0  0  0  0  0  0  0  0  0  0
    4.6202    3.2003    0.0000 C   0  0  0  0  0  0  0  0  0  0  0  0
    3.1641    2.8399    0.0000 C   0  0  0  0  0  0  0  0  0  0  0  0
    2.7482    1.3987    0.0000 C   0  0  0  0  0  0  0  0  0  0  0  0
    3.7884    0.3179    0.0000 C   0  0  0  0  0  0  0  0  0  0  0  0
    3.3725   -1.1233    0.0000 C   0  0  0  0  0  0  0  0  0  0  0  0
    2.9566   -2.5645    0.0000 N   0  0  0  0  0  0  0  0  0  0  0  0
    1.5006   -2.9249    0.0000 C   0  0  0  0  0  0  0  0  0  0  0  0
    0.4604   -1.8441    0.0000 C   0  0  0  0  0  0  0  0  0  0  0  0
   -0.9956   -2.2045    0.0000 C   0  0  0  0  0  0  0  0  0  0  0  0
   -1.4115   -3.6457    0.0000 N   0  0  0  0  0  0  0  0  0  0  0  0
   -0.3714   -4.7265    0.0000 C   0  0  0  0  0  0  0  0  0  0  0  0
    1.0847   -4.3661    0.0000 N   0  0  0  0  0  0  0  0  0  0  0  0
   -1.7884   -0.9311    0.0000 N   0  0  0  0  0  0  0  0  0  0  0  0
   -0.8222    0.2163    0.0000 C   0  0  0  0  0  0  0  0  0  0  0  0
    0.5676   -0.3479    0.0000 N   0  0  0  0  0  0  0  0  0  0  0  0
   -3.2845   -0.8240    0.0000 C   0  0  0  0  0  0  0  0  0  0  0  0
   -4.7703   -1.0302    0.0000 C   0  0  0  0  0  0  0  0  0  0  0  0
   -5.4256    0.3191    0.0000 C   0  0  0  0  0  0  0  0  0  0  0  0
   -4.3448    1.3592    0.0000 C   0  0  0  0  0  0  0  0  0  0  0  0
   -3.0216    0.6528    0.0000 O   0  0  0  0  0  0  0  0  0  0  0  0
   -3.5039    2.6014    0.0000 C   0  0  0  0  0  0  0  0  0  0  0  0
   -2.6630    3.8435    0.0000 O   0  0  0  0  0  0  0  0  0  0  0  0
   -6.3471    1.5026    0.0000 O   0  0  0  0  0  0  0  0  0  0  0  0
   -6.1807   -1.5409    0.0000 O   0  0  0  0  0  0  0  0  0  0  0  0
    5.5184   -1.3454    0.0000 H   0  0  0  0  0  0  0  0  0  0  0  0
    7.3654    0.6378    0.0000 H   0  0  0  0  0  0  0  0  0  0  0  0
    7.3248   -1.4832    0.0000 H   0  0  0  0  0  0  0  0  0  0  0  0
    7.1164    2.4800    0.0000 H   0  0  0  0  0  0  0  0  0  0  0  0
    5.0361    4.6415    0.0000 H   0  0  0  0  0  0  0  0  0  0  0  0
    2.1240    3.9207    0.0000 H   0  0  0  0  0  0  0  0  0  0  0  0
    1.2922    1.0383    0.0000 H   0  0  0  0  0  0  0  0  0  0  0  0
    4.4901   -1.5999    0.0000 H   0  0  0  0  0  0  0  0  0  0  0  0
    1.9313   -0.7074    0.0000 H   0  0  0  0  0  0  0  0  0  0  0  0
    3.9968   -3.6452    0.0000 H   0  0  0  0  0  0  0  0  0  0  0  0
   -0.7872   -6.1677    0.0000 H   0  0  0  0  0  0  0  0  0  0  0  0
   -1.1827    1.6724    0.0000 H   0  0  0  0  0  0  0  0  0  0  0  0
   -3.2347   -2.3231    0.0000 H   0  0  0  0  0  0  0  0  0  0  0  0
   -4.4099   -2.4863    0.0000 H   0  0  0  0  0  0  0  0  0  0  0  0
   -6.5276   -0.1925    0.0000 H   0  0  0  0  0  0  0  0  0  0  0  0
   -5.1719    2.2492    0.0000 H   0  0  0  0  0  0  0  0  0  0  0  0
   -2.2618    1.7605    0.0000 H   0  0  0  0  0  0  0  0  0  0  0  0
   -4.7461    3.4423    0.0000 H   0  0  0  0  0  0  0  0  0  0  0  0
   -1.1669    3.7364    0.0000 H   0  0  0  0  0  0  0  0  0  0  0  0
   -6.0307    2.6757    0.0000 H   0  0  0  0  0  0  0  0  0  0  0  0
   -7.1986   -0.8775    0.0000 H   0  0  0  0  0  0  0  0  0  0  0  0
  1  2  1  0
  1 28  1  0
  1 29  1  0
  1 30  1  0
  2  3  2  0
  2  7  1  0
  3  4  1  0
  3 31  1  0
  4  5  2  0
  4 32  1  0
  5  6  1  0
  5 33  1  0
  6  7  2  0
  6 34  1  0
  7  8  1  0
  8  9  1  0
  8 35  1  0
  8 36  1  0
  9 10  1  0
  9 37  1  0
 10 11  2  0
 10 15  1  0
 11 12  1  0
 11 18  1  0
 12 13  2  0
 12 16  1  0
 13 14  1  0
 14 15  2  0
 14 38  1  0
 16 17  1  0
 16 19  1  0
 17 18  2  0
 17 39  1  0
 19 20  1  0
 19 23  1  0
 19 40  1  6
 20 21  1  0
 20 27  1  0
 20 41  1  1
 21 22  1  0
 21 26  1  0
 21 42  1  1
 22 23  1  0
 22 43  1  6
 22 24  1  0
 24 25  1  0
 24 44  1  0
 24 45  1  0
 25 46  1  0
 26 47  1  0
 27 48  1  0
M  END
$$$$

     RDKit          2D

 58 57  0  0  0  0  0  0  0  0999 V2000
    9.4651   -0.1885    0.0000 C   0  0  0  0  0  0  0  0  0  0  0  0
    7.9660   -0.1374    0.0000 C   0  0  0  0  0  0  0  0  0  0  0  0
    6.4668   -0.0862    0.0000 C   0  0  0  0  0  0  0  0  0  0  0  0
    4.9677   -0.0351    0.0000 C   0  0  0  0  0  0  0  0  0  0  0  0
    3.4686    0.0161    0.0000 C   0  0  0  0  0  0  0  0  0  0  0  0
    1.9695    0.0672    0.0000 C   0  0  0  0  0  0  0  0  0  0  0  0
    0.4703    0.1184    0.0000 C   0  0  0  0  0  0  0  0  0  0  0  0
   -1.0288    0.1695    0.0000 C   0  0  0  0  0  0  0  0  0  0  0  0
   -2.5279    0.2207    0.0000 C   0  0  0  0  0  0  0  0  0  0  0  0
   -4.0271    0.2718    0.0000 C   0  0  0  0  0  0  0  0  0  0  0  0
   -5.5262    0.3230    0.0000 N   0  0  0  0  0  0  0  0  0  0  0  0
   -6.3660    1.5658    0.0000 C   0  0  0  0  0  0  0  0  0  0  0  0
   -7.8075    1.1512    0.0000 C   0  0  0  0  0  0  0  0  0  0  0  0
   -7.8587   -0.3479    0.0000 N   0  0  0  0  0  0  0  0  0  0  0  0
   -6.4487   -0.8598    0.0000 C   0  0  0  0  0  0  0  0  0  0  0  0
   -9.1016   -1.1877    0.0000 C   0  0  0  0  0  0  0  0  0  0  0  0
    2.5981    5.2748    0.0000 C   0  0  0  0  0  0  0  0  0  0  0  0
    1.8481    3.9758    0.0000 F   0  0  0  0  0  0  0  0  0  0  0  0
    3.3481    6.5739    0.0000 F   0  0  0  0  0  0  0  0  0  0  0  0
    3.8971    4.5248    0.0000 F   0  0  0  0  0  0  0  0  0  0  0  0
    1.2990    6.0248    0.0000 S   0  0  0  0  0  0  0  0  0  0  0  0
    2.0490    7.3239    0.0000 O   0  0  0  0  0  0  0  0  0  0  0  0
    0.5490    4.7258    0.0000 O   0  0  0  0  0  0  0  0  0  0  0  0
    0.0000    6.7748    0.0000 N   0  0  0  0  0  0  0  0  0  0  0  0
   -1.2990    6.0248    0.0000 S   0  0  0  0  0  0  0  0  0  0  0  0
   -0.5490    4.7258    0.0000 O   0  0  0  0  0  0  0  0  0  0  0  0
   -2.0490    7.3239    0.0000 O   0  0  0  0  0  0  0  0  0  0  0  0
   -2.5981    5.2748    0.0000 C   0  0  0  0  0  0  0  0  0  0  0  0
   -1.8481    3.9758    0.0000 F   0  0  0  0  0  0  0  0  0  0  0  0
   -3.3481    6.5739    0.0000 F   0  0  0  0  0  0  0  0  0  0  0  0
   -3.8971    4.5248    0.0000 F   0  0  0  0  0  0  0  0  0  0  0  0
    9.5162    1.3106    0.0000 H   0  0  0  0  0  0  0  0  0  0  0  0
    9.4139   -1.6876    0.0000 H   0  0  0  0  0  0  0  0  0  0  0  0
   10.9642   -0.2397    0.0000 H   0  0  0  0  0  0  0  0  0  0  0  0
    7.9148   -1.6365    0.0000 H   0  0  0  0  0  0  0  0  0  0  0  0
    8.0171    1.3618    0.0000 H   0  0  0  0  0  0  0  0  0  0  0  0
    6.5180    1.4129    0.0000 H   0  0  0  0  0  0  0  0  0  0  0  0
    6.4157   -1.5853    0.0000 H   0  0  0  0  0  0  0  0  0  0  0  0
    4.9166   -1.5342    0.0000 H   0  0  0  0  0  0  0  0  0  0  0  0
    5.0189    1.4641    0.0000 H   0  0  0  0  0  0  0  0  0  0  0  0
    3.5197    1.5152    0.0000 H   0  0  0  0  0  0  0  0  0  0  0  0
    3.4174   -1.4830    0.0000 H   0  0  0  0  0  0  0  0  0  0  0  0
    1.9183   -1.4319    0.0000 H   0  0  0  0  0  0  0  0  0  0  0  0
    2.0206    1.5664    0.0000 H   0  0  0  0  0  0  0  0  0  0  0  0
    0.5215    1.6175    0.0000 H   0  0  0  0  0  0  0  0  0  0  0  0
    0.4192   -1.3808    0.0000 H   0  0  0  0  0  0  0  0  0  0  0  0
   -1.0800   -1.3296    0.0000 H   0  0  0  0  0  0  0  0  0  0  0  0
   -0.9777    1.6686    0.0000 H   0  0  0  0  0  0  0  0  0  0  0  0
   -2.4768    1.7198    0.0000 H   0  0  0  0  0  0  0  0  0  0  0  0
   -2.5791   -1.2785    0.0000 H   0  0  0  0  0  0  0  0  0  0  0  0
   -4.0782   -1.2273    0.0000 H   0  0  0  0  0  0  0  0  0  0  0  0
   -3.9759    1.7709    0.0000 H   0  0  0  0  0  0  0  0  0  0  0  0
   -5.8541    2.9758    0.0000 H   0  0  0  0  0  0  0  0  0  0  0  0
   -8.9903    2.0738    0.0000 H   0  0  0  0  0  0  0  0  0  0  0  0
   -6.0341   -2.3014    0.0000 H   0  0  0  0  0  0  0  0  0  0  0  0
   -9.9413    0.0552    0.0000 H   0  0  0  0  0  0  0  0  0  0  0  0
   -8.2618   -2.4306    0.0000 H   0  0  0  0  0  0  0  0  0  0  0  0
  -10.3444   -2.0275    0.0000 H   0  0  0  0  0  0  0  0  0  0  0  0
  1  2  1  0
  1 32  1  0
  1 33  1  0
  1 34  1  0
  2  3  1  0
  2 35  1  0
  2 36  1  0
  3  4  1  0
  3 37  1  0
  3 38  1  0
  4  5  1  0
  4 39  1  0
  4 40  1  0
  5  6  1  0
  5 41  1  0
  5 42  1  0
  6  7  1  0
  6 43  1  0
  6 44  1  0
  7  8  1  0
  7 45  1  0
  7 46  1  0
  8  9  1  0
  8 47  1  0
  8 48  1  0
  9 10  1  0
  9 49  1  0
  9 50  1  0
 10 11  1  0
 10 51  1  0
 10 52  1  0
 11 12  1  0
 11 15  1  0
 12 13  2  0
 12 53  1  0
 13 14  1  0
 13 54  1  0
 14 15  2  0
 14 16  1  0
 15 55  1  0
 16 56  1  0
 16 57  1  0
 16 58  1  0
 17 18  1  0
 17 19  1  0
 17 20  1  0
 17 21  1  0
 21 22  2  0
 21 23  2  0
 21 24  1  0
 24 25  1  0
 25 26  2  0
 25 27  2  0
 25 28  1  0
 28 29  1  0
 28 30  1  0
 28 31  1  0
M  CHG  2  14   1  24  -1
M  END
$$$$

     RDKit          2D

 36 38  0  0  0  0  0  0  0  0999 V2000
    4.4986    1.2774    0.0000 C   0  0  0  0  0  0  0  0  0  0  0  0
    4.4478   -0.2218    0.0000 C   0  0  0  0  0  0  0  0  0  0  0  0
    2.9487   -0.1710    0.0000 C   0  0  0  0  0  0  0  0  0  0  0  0
    2.1551   -1.4439    0.0000 C   0  0  0  0  0  0  0  0  0  0  0  0
    0.6560   -1.3931    0.0000 C   0  0  0  0  0  0  0  0  0  0  0  0
   -0.0496   -0.0694    0.0000 C   0  0  0  0  0  0  0  0  0  0  0  0
    0.7439    1.2035    0.0000 C   0  0  0  0  0  0  0  0  0  0  0  0
    2.2431    1.1527    0.0000 C   0  0  0  0  0  0  0  0  0  0  0  0
   -1.5487   -0.0186    0.0000 N   0  0  0  0  0  0  0  0  0  0  0  0
   -2.4710   -1.2016    0.0000 C   0  0  0  0  0  0  0  0  0  0  0  0
   -3.8811   -0.6901    0.0000 C   0  0  0  0  0  0  0  0  0  0  0  0
   -5.2048   -1.3956    0.0000 C   0  0  0  0  0  0  0  0  0  0  0  0
   -6.4777   -0.6021    0.0000 C   0  0  0  0  0  0  0  0  0  0  0  0
   -6.4269    0.8970    0.0000 C   0  0  0  0  0  0  0  0  0  0  0  0
   -5.1032    1.6026    0.0000 C   0  0  0  0  0  0  0  0  0  0  0  0
   -3.8303    0.8091    0.0000 C   0  0  0  0  0  0  0  0  0  0  0  0
   -2.3888    1.2240    0.0000 C   0  0  0  0  0  0  0  0  0  0  0  0
   -1.8773    2.6341    0.0000 O   0  0  0  0  0  0  0  0  0  0  0  0
    5.9470   -0.2725    0.0000 C   0  0  0  0  0  0  0  0  0  0  0  0
    6.8898    0.8941    0.0000 O   0  0  0  0  0  0  0  0  0  0  0  0
    6.6526   -1.5962    0.0000 O   0  0  0  0  0  0  0  0  0  0  0  0
    3.6469    1.5207    0.0000 H   0  0  0  0  0  0  0  0  0  0  0  0
    5.9928    1.4097    0.0000 H   0  0  0  0  0  0  0  0  0  0  0  0
    4.5494    2.7765    0.0000 H   0  0  0  0  0  0  0  0  0  0  0  0
    4.3970   -1.7209    0.0000 H   0  0  0  0  0  0  0  0  0  0  0  0
    2.8607   -2.7676    0.0000 H   0  0  0  0  0  0  0  0  0  0  0  0
   -0.1376   -2.6660    0.0000 H   0  0  0  0  0  0  0  0  0  0  0  0
    0.0384    2.5272    0.0000 H   0  0  0  0  0  0  0  0  0  0  0  0
    2.7117    1.9043    0.0000 H   0  0  0  0  0  0  0  0  0  0  0  0
   -1.1981   -1.9952    0.0000 H   0  0  0  0  0  0  0  0  0  0  0  0
   -3.1271   -2.5505    0.0000 H   0  0  0  0  0  0  0  0  0  0  0  0
   -5.2555   -2.8948    0.0000 H   0  0  0  0  0  0  0  0  0  0  0  0
   -7.8013   -1.3077    0.0000 H   0  0  0  0  0  0  0  0  0  0  0  0
   -7.6998    1.6906    0.0000 H   0  0  0  0  0  0  0  0  0  0  0  0
   -5.0524    3.1018    0.0000 H   0  0  0  0  0  0  0  0  0  0  0  0
    8.1517   -1.6470    0.0000 H   0  0  0  0  0  0  0  0  0  0  0  0
  1  2  1  0
  1 22  1  0
  1 23  1  0
  1 24  1  0
  2  3  1  0
  2 19  1  0
  2 25  1  1
  3  4  2  0
  3  8  1  0
  4  5  1  0
  4 26  1  0
  5  6  2  0
  5 27  1  0
  6  7  1  0
  6  9  1  0
  7  8  2  0
  7 28  1  0
  8 29  1  0
  9 10  1  0
  9 17  1  0
 10 11  1  0
 10 30  1  0
 10 31  1  0
 11 12  1  0
 11 16  2  0
 12 13  2  0
 12 32  1  0
 13 14  1  0
 13 33  1  0
 14 15  2  0
 14 34  1  0
 15 16  1  0
 15 35  1  0
 16 17  1  0
 17 18  2  0
 19 20  2  0
 19 21  1  0
 21 36  1  0
M  END
$$$$

     RDKit          2D

 85 90  0  0  1  0  0  0  0  0999 V2000
    9.2040    1.9061    0.0000 C   0  0  0  0  0  0  0  0  0  0  0  0
    7.7226    1.6706    0.0000 C   0  0  0  0  0  0  0  0  0  0  0  0
    8.2117    0.2526    0.0000 C   0  0  0  0  0  0  0  0  0  0  0  0
    7.2283   -0.8800    0.0000 C   0  0  0  0  0  0  0  0  0  0  0  0
    5.7557   -0.5947    0.0000 C   0  0  0  0  0  0  0  0  0  0  0  0
    5.2665    0.8233    0.0000 C   0  0  0  0  0  0  0  0  0  0  0  0
    6.2500    1.9560    0.0000 O   0  0  0  0  0  0  0  0  0  0  0  0
    3.9550    0.0954    0.0000 O   0  0  0  0  0  0  0  0  0  0  0  0
    2.6688    0.8672    0.0000 C   0  0  0  0  0  0  0  0  0  0  0  0
    1.7242    2.0324    0.0000 C   0  0  0  0  0  0  0  0  0  0  0  0
    0.2428    1.7969    0.0000 C   0  0  0  0  0  0  0  0  0  0  0  0
   -0.2940    0.3962    0.0000 C   0  0  0  0  0  0  0  0  0  0  0  0
   -1.7754    0.1607    0.0000 C   0  0  0  0  0  0  0  0  0  0  0  0
   -2.3122   -1.2399    0.0000 C   0  0  0  0  0  0  0  0  0  0  0  0
   -1.3675   -2.4051    0.0000 C   0  0  0  0  0  0  0  0  0  0  0  0
    0.1139   -2.1696    0.0000 C   0  0  0  0  0  0  0  0  0  0  0  0
    0.6506   -0.7689    0.0000 C   0  0  0  0  0  0  0  0  0  0  0  0
    2.1320   -0.5335    0.0000 C   0  0  0  0  0  0  0  0  0  0  0  0
    1.5953   -1.9341    0.0000 O   0  0  0  0  0  0  0  0  0  0  0  0
   -3.7936   -1.4754    0.0000 C   0  0  0  0  0  0  0  0  0  0  0  0
   -4.6098   -2.7339    0.0000 C   0  0  0  0  0  0  0  0  0  0  0  0
   -6.0589   -2.3465    0.0000 C   0  0  0  0  0  0  0  0  0  0  0  0
   -6.1383   -0.8486    0.0000 C   0  0  0  0  0  0  0  0  0  0  0  0
   -4.7382   -0.3102    0.0000 C   0  0  0  0  0  0  0  0  0  0  0  0
   -4.2014    1.0904    0.0000 C   0  0  0  0  0  0  0  0  0  0  0  0
   -2.7200    1.3259    0.0000 C   0  0  0  0  0  0  0  0  0  0  0  0
   -3.2092    2.7439    0.0000 O   0  0  0  0  0  0  0  0  0  0  0  0
   -5.7995    0.7498    0.0000 C   0  0  0  0  0  0  0  0  0  0  0  0
   -6.5273    0.6001    0.0000 C   0  0  0  0  0  0  0  0  0  0  0  0
   -7.9280    1.1369    0.0000 C   0  0  0  0  0  0  0  0  0  0  0  0
   -7.8503    2.6348    0.0000 C   0  0  0  0  0  0  0  0  0  0  0  0
   -9.0166    3.5782    0.0000 O   0  0  0  0  0  0  0  0  0  0  0  0
   -6.4017    3.0239    0.0000 O   0  0  0  0  0  0  0  0  0  0  0  0
   -5.5840    1.7663    0.0000 C   0  0  0  0  0  0  0  0  0  0  0  0
   -3.4061   -0.0263    0.0000 O   0  0  0  0  0  0  0  0  0  0  0  0
   -0.8308   -1.0044    0.0000 C   0  0  0  0  0  0  0  0  0  0  0  0
   -1.3675   -2.4051    0.0000 O   0  0  0  0  0  0  0  0  0  0  0  0
    0.2681    3.2967    0.0000 O   0  0  0  0  0  0  0  0  0  0  0  0
    4.2743   -0.8302    0.0000 O   0  0  0  0  0  0  0  0  0  0  0  0
    6.6915   -2.2807    0.0000 O   0  0  0  0  0  0  0  0  0  0  0  0
    9.1563   -0.9126    0.0000 O   0  0  0  0  0  0  0  0  0  0  0  0
    9.6183    0.4644    0.0000 H   0  0  0  0  0  0  0  0  0  0  0  0
    8.9685    3.3875    0.0000 H   0  0  0  0  0  0  0  0  0  0  0  0
   10.6854    2.1416    0.0000 H   0  0  0  0  0  0  0  0  0  0  0  0
    7.7479    3.1704    0.0000 H   0  0  0  0  0  0  0  0  0  0  0  0
    9.6022    0.8152    0.0000 H   0  0  0  0  0  0  0  0  0  0  0  0
    8.4108   -1.8029    0.0000 H   0  0  0  0  0  0  0  0  0  0  0  0
    5.7303   -2.0945    0.0000 H   0  0  0  0  0  0  0  0  0  0  0  0
    4.4709    2.0950    0.0000 H   0  0  0  0  0  0  0  0  0  0  0  0
    3.5069    2.1113    0.0000 H   0  0  0  0  0  0  0  0  0  0  0  0
    1.4115    3.4995    0.0000 H   0  0  0  0  0  0  0  0  0  0  0  0
    3.0357    2.7604    0.0000 H   0  0  0  0  0  0  0  0  0  0  0  0
   -1.1170    2.4301    0.0000 H   0  0  0  0  0  0  0  0  0  0  0  0
   -1.2386    1.5614    0.0000 H   0  0  0  0  0  0  0  0  0  0  0  0
   -2.8489   -2.6406    0.0000 H   0  0  0  0  0  0  0  0  0  0  0  0
   -1.0549   -3.8722    0.0000 H   0  0  0  0  0  0  0  0  0  0  0  0
   -2.4639   -3.4288    0.0000 H   0  0  0  0  0  0  0  0  0  0  0  0
    1.3863   -2.9639    0.0000 H   0  0  0  0  0  0  0  0  0  0  0  0
    0.2716   -3.6613    0.0000 H   0  0  0  0  0  0  0  0  0  0  0  0
    3.4918   -1.1667    0.0000 H   0  0  0  0  0  0  0  0  0  0  0  0
    2.6460   -1.9427    0.0000 H   0  0  0  0  0  0  0  0  0  0  0  0
    3.0943   -1.8810    0.0000 H   0  0  0  0  0  0  0  0  0  0  0  0
   -3.4772   -3.7174    0.0000 H   0  0  0  0  0  0  0  0  0  0  0  0
   -5.1466   -4.1346    0.0000 H   0  0  0  0  0  0  0  0  0  0  0  0
   -6.2927   -3.8281    0.0000 H   0  0  0  0  0  0  0  0  0  0  0  0
   -7.5569   -2.2688    0.0000 H   0  0  0  0  0  0  0  0  0  0  0  0
   -7.6197   -1.0841    0.0000 H   0  0  0  0  0  0  0  0  0  0  0  0
   -3.9935    2.5760    0.0000 H   0  0  0  0  0  0  0  0  0  0  0  0
   -5.3676    2.0339    0.0000 H   0  0  0  0  0  0  0  0  0  0  0  0
   -1.6236    2.3496    0.0000 H   0  0  0  0  0  0  0  0  0  0  0  0
   -2.2257    3.8766    0.0000 H   0  0  0  0  0  0  0  0  0  0  0  0
   -4.7394    1.8111    0.0000 H   0  0  0  0  0  0  0  0  0  0  0  0
   -6.8595   -0.3114    0.0000 H   0  0  0  0  0  0  0  0  0  0  0  0
   -6.8607    1.8099    0.0000 H   0  0  0  0  0  0  0  0  0  0  0  0
   -9.1855    0.3192    0.0000 H   0  0  0  0  0  0  0  0  0  0  0  0
   -4.5426    2.8460    0.0000 H   0  0  0  0  0  0  0  0  0  0  0  0
   -4.2978    0.9946    0.0000 H   0  0  0  0  0  0  0  0  0  0  0  0
   -2.0157    0.5364    0.0000 H   0  0  0  0  0  0  0  0  0  0  0  0
    0.1538   -2.1361    0.0000 H   0  0  0  0  0  0  0  0  0  0  0  0
   -2.2859   -1.3683    0.0000 H   0  0  0  0  0  0  0  0  0  0  0  0
   -0.4229   -3.5703    0.0000 H   0  0  0  0  0  0  0  0  0  0  0  0
    1.4811    4.1791    0.0000 H   0  0  0  0  0  0  0  0  0  0  0  0
    3.9122   -2.2858    0.0000 H   0  0  0  0  0  0  0  0  0  0  0  0
    7.6361   -3.4459    0.0000 H   0  0  0  0  0  0  0  0  0  0  0  0
    8.7943   -2.3683    0.0000 H   0  0  0  0  0  0  0  0  0  0  0  0
  1  2  1  0
  1 42  1  0
  1 43  1  0
  1 44  1  0
  2  3  1  0
  2  7  1  0
  2 45  1  6
  3  4  1  0
  3 41  1  0
  3 46  1  1
  4  5  1  0
  4 40  1  0
  4 47  1  6
  5  6  1  0
  5 39  1  0
  5 48  1  6
  6  7  1  0
  6  8  1  0
  6 49  1  1
  9 10  1  0
  9 18  1  0
  9 50  1  1
  9  8  1  0
 10 11  1  0
 10 51  1  0
 10 52  1  0
 11 12  1  0
 11 38  1  0
 11 53  1  1
 12 13  1  0
 12 17  1  0
 12 36  1  1
 13 14  1  0
 13 26  1  0
 13 54  1  1
 14 15  1  0
 14 20  1  0
 14 55  1  6
 15 16  1  0
 15 56  1  0
 15 57  1  0
 16 17  1  0
 16 58  1  0
 16 59  1  0
 17 18  1  0
 17 19  1  6
 18 60  1  0
 18 61  1  0
 19 62  1  0
 20 21  1  0
 20 24  1  0
 20 35  1  6
 21 22  1  0
 21 63  1  0
 21 64  1  0
 22 23  1  0
 22 65  1  0
 22 66  1  0
 23 24  1  0
 23 29  1  0
 23 67  1  1
 24 25  1  0
 24 28  1  6
 25 26  1  0
 25 68  1  0
 25 69  1  0
 26 70  1  6
 26 27  1  0
 27 71  1  0
 28 72  1  0
 28 73  1  0
 28 74  1  0
 29 30  2  0
 29 34  1  0
 30 31  1  0
 30 75  1  0
 31 32  2  0
 31 33  1  0
 33 34  1  0
 34 76  1  0
 34 77  1  0
 35 78  1  0
 36 37  1  0
 36 79  1  0
 36 80  1  0
 37 81  1  0
 38 82  1  0
 39 83  1  0
 40 84  1  0
 41 85  1  0
M  END
$$$$

     RDKit          2D

 22 24  0  0  0  0  0  0  0  0999 V2000
    3.0000   -1.4171    0.0000 C   0  0  0  0  0  0  0  0  0  0  0  0
    1.5000   -1.4171    0.0000 C   0  0  0  0  0  0  0  0  0  0  0  0
    0.7500   -0.1181    0.0000 C   0  0  0  0  0  0  0  0  0  0  0  0
    1.5000    1.1809    0.0000 C   0  0  0  0  0  0  0  0  0  0  0  0
    0.7500    2.4800    0.0000 C   0  0  0  0  0  0  0  0  0  0  0  0
    1.5000    3.7790    0.0000 O   0  0  0  0  0  0  0  0  0  0  0  0
   -0.7500    2.4800    0.0000 C   0  0  0  0  0  0  0  0  0  0  0  0
   -1.5000    3.7790    0.0000 O   0  0  0  0  0  0  0  0  0  0  0  0
   -1.5000    1.1809    0.0000 C   0  0  0  0  0  0  0  0  0  0  0  0
   -0.7500   -0.1181    0.0000 C   0  0  0  0  0  0  0  0  0  0  0  0
   -1.5000   -1.4171    0.0000 C   0  0  0  0  0  0  0  0  0  0  0  0
   -3.0000   -1.4171    0.0000 C   0  0  0  0  0  0  0  0  0  0  0  0
   -3.7500   -0.1181    0.0000 C   0  0  0  0  0  0  0  0  0  0  0  0
   -3.0000    1.1809    0.0000 N   0  0  0  0  0  0  0  0  0  0  0  0
    3.0000    1.1809    0.0000 N   0  0  0  0  0  0  0  0  0  0  0  0
    3.7500   -0.1181    0.0000 C   0  0  0  0  0  0  0  0  0  0  0  0
    3.7500   -2.7162    0.0000 H   0  0  0  0  0  0  0  0  0  0  0  0
    0.7500   -2.7162    0.0000 H   0  0  0  0  0  0  0  0  0  0  0  0
   -0.7500   -2.7162    0.0000 H   0  0  0  0  0  0  0  0  0  0  0  0
   -3.7500   -2.7162    0.0000 H   0  0  0  0  0  0  0  0  0  0  0  0
   -5.2500   -0.1181    0.0000 H   0  0  0  0  0  0  0  0  0  0  0  0
    5.2500   -0.1181    0.0000 H   0  0  0  0  0  0  0  0  0  0  0  0
  1  2  2  0
  1 16  1  0
  1 17  1  0
  2  3  1  0
  2 18  1  0
  3  4  2  0
  3 10  1  0
  4  5  1  0
  4 15  1  0
  5  6  2  0
  5  7  1  0
  7  8  2  0
  7  9  1  0
  9 10  2  0
  9 14  1  0
 10 11  1  0
 11 12  2  0
 11 19  1  0
 12 13  1  0
 12 20  1  0
 13 14  2  0
 13 21  1  0
 15 16  2  0
 16 22  1  0
M  END
$$$$

     RDKit          2D

 59 60  0  0  0  0  0  0  0  0999 V2000
    6.7500   -1.2990    0.0000 C   0  0  0  0  0  0  0  0  0  0  0  0
    6.0000    0.0000    0.0000 N   0  0  0  0  0  0  0  0  0  0  0  0
    6.7500    1.2990    0.0000 C   0  0  0  0  0  0  0  0  0  0  0  0
    4.5000   -0.0000    0.0000 C   0  0  0  0  0  0  0  0  0  0  0  0
    3.7500   -1.2990    0.0000 C   0  0  0  0  0  0  0  0  0  0  0  0
    2.2500   -1.2990    0.0000 C   0  0  0  0  0  0  0  0  0  0  0  0
    1.5000   -0.0000    0.0000 C   0  0  0  0  0  0  0  0  0  0  0  0
    2.2500    1.2990    0.0000 C   0  0  0  0  0  0  0  0  0  0  0  0
    3.7500    1.2990    0.0000 C   0  0  0  0  0  0  0  0  0  0  0  0
    0.0000   -0.0000    0.0000 C   0  0  0  0  0  0  0  0  0  0  0  0
   -0.7500   -1.2990    0.0000 C   0  0  0  0  0  0  0  0  0  0  0  0
   -2.2500   -1.2990    0.0000 C   0  0  0  0  0  0  0  0  0  0  0  0
   -3.0000   -2.5981    0.0000 C   0  0  0  0  0  0  0  0  0  0  0  0
   -2.2500   -3.8971    0.0000 C   0  0  0  0  0  0  0  0  0  0  0  0
   -3.0000   -5.1962    0.0000 N   0  0  0  0  0  0  0  0  0  0  0  0
   -2.2500   -6.4952    0.0000 C   0  0  0  0  0  0  0  0  0  0  0  0
   -4.5000   -5.1962    0.0000 C   0  0  0  0  0  0  0  0  0  0  0  0
   -0.7500   -3.8971    0.0000 C   0  0  0  0  0  0  0  0  0  0  0  0
   -0.0000   -2.5981    0.0000 C   0  0  0  0  0  0  0  0  0  0  0  0
   -0.7500    1.2990    0.0000 C   0  0  0  0  0  0  0  0  0  0  0  0
    0.0000    2.5981    0.0000 C   0  0  0  0  0  0  0  0  0  0  0  0
   -0.7500    3.8971    0.0000 C   0  0  0  0  0  0  0  0  0  0  0  0
   -2.2500    3.8971    0.0000 C   0  0  0  0  0  0  0  0  0  0  0  0
   -3.0000    2.5981    0.0000 C   0  0  0  0  0  0  0  0  0  0  0  0
   -2.2500    1.2990    0.0000 C   0  0  0  0  0  0  0  0  0  0  0  0
   -3.0000    5.1962    0.0000 N   0  0  0  0  0  0  0  0  0  0  0  0
   -4.5000    5.1962    0.0000 C   0  0  0  0  0  0  0  0  0  0  0  0
   -2.2500    6.4952    0.0000 C   0  0  0  0  0  0  0  0  0  0  0  0
    9.0490    0.0000    0.0000 Cl  0  0  0  0  0  0  0  0  0  0  0  0
    8.0490   -0.5490    0.0000 H   0  0  0  0  0  0  0  0  0  0  0  0
    5.4510   -2.0490    0.0000 H   0  0  0  0  0  0  0  0  0  0  0  0
    7.5000   -2.5981    0.0000 H   0  0  0  0  0  0  0  0  0  0  0  0
    8.0490    0.5490    0.0000 H   0  0  0  0  0  0  0  0  0  0  0  0
    5.4510    2.0490    0.0000 H   0  0  0  0  0  0  0  0  0  0  0  0
    7.5000    2.5981    0.0000 H   0  0  0  0  0  0  0  0  0  0  0  0
    4.5000   -2.5981    0.0000 H   0  0  0  0  0  0  0  0  0  0  0  0
    1.8655   -2.2050    0.0000 H   0  0  0  0  0  0  0  0  0  0  0  0
    1.8655    2.2050    0.0000 H   0  0  0  0  0  0  0  0  0  0  0  0
    4.5000    2.5981    0.0000 H   0  0  0  0  0  0  0  0  0  0  0  0
   -2.8423   -0.5131    0.0000 H   0  0  0  0  0  0  0  0  0  0  0  0
   -4.5000   -2.5981    0.0000 H   0  0  0  0  0  0  0  0  0  0  0  0
   -3.5490   -7.2452    0.0000 H   0  0  0  0  0  0  0  0  0  0  0  0
   -0.9510   -5.7452    0.0000 H   0  0  0  0  0  0  0  0  0  0  0  0
   -1.5000   -7.7942    0.0000 H   0  0  0  0  0  0  0  0  0  0  0  0
   -4.5000   -6.6962    0.0000 H   0  0  0  0  0  0  0  0  0  0  0  0
   -4.5000   -3.6962    0.0000 H   0  0  0  0  0  0  0  0  0  0  0  0
   -6.0000   -5.1962    0.0000 H   0  0  0  0  0  0  0  0  0  0  0  0
   -0.0000   -5.1962    0.0000 H   0  0  0  0  0  0  0  0  0  0  0  0
    0.9768   -2.7180    0.0000 H   0  0  0  0  0  0  0  0  0  0  0  0
    0.9768    2.7180    0.0000 H   0  0  0  0  0  0  0  0  0  0  0  0
    0.0000    5.1962    0.0000 H   0  0  0  0  0  0  0  0  0  0  0  0
   -4.5000    2.5981    0.0000 H   0  0  0  0  0  0  0  0  0  0  0  0
   -2.8423    0.5131    0.0000 H   0  0  0  0  0  0  0  0  0  0  0  0
   -4.5000    6.6962    0.0000 H   0  0  0  0  0  0  0  0  0  0  0  0
   -4.5000    3.6962    0.0000 H   0  0  0  0  0  0  0  0  0  0  0  0
   -6.0000    5.1962    0.0000 H   0  0  0  0  0  0  0  0  0  0  0  0
   -3.5490    7.2452    0.0000 H   0  0  0  0  0  0  0  0  0  0  0  0
   -0.9510    5.7452    0.0000 H   0  0  0  0  0  0  0  0  0  0  0  0
   -1.5000    7.7942    0.0000 H   0  0  0  0  0  0  0  0  0  0  0  0
  1  2  1  0
  1 30  1  0
  1 31  1  0
  1 32  1  0
  2  3  1  0
  2  4  1  0
  3 33  1  0
  3 34  1  0
  3 35  1  0
  4  5  2  0
  4  9  1  0
  5  6  1  0
  5 36  1  0
  6  7  2  0
  6 37  1  0
  7  8  1  0
  7 10  1  0
  8  9  2  0
  8 38  1  0
  9 39  1  0
 10 11  2  0
 10 20  1  0
 11 12  1  0
 11 19  1  0
 12 13  2  0
 12 40  1  0
 13 14  1  0
 13 41  1  0
 14 15  2  0
 14 18  1  0
 15 16  1  0
 15 17  1  0
 16 42  1  0
 16 43  1  0
 16 44  1  0
 17 45  1  0
 17 46  1  0
 17 47  1  0
 18 19  2  0
 18 48  1  0
 19 49  1  0
 20 21  2  0
 20 25  1  0
 21 22  1  0
 21 50  1  0
 22 23  2  0
 22 51  1  0
 23 24  1  0
 23 26  1  0
 24 25  2  0
 24 52  1  0
 25 53  1  0
 26 27  1  0
 26 28  1  0
 27 54  1  0
 27 55  1  0
 27 56  1  0
 28 57  1  0
 28 58  1  0
 28 59  1  0
M  CHG  2  15   1  29  -1
M  END
$$$$

     RDKit          2D

 54 55  0  0  0  0  0  0  0  0999 V2000
   -6.3584   -2.2810    0.0000 C   0  0  0  0  0  0  0  0  0  0  0  0
   -5.4983   -1.0521    0.0000 C   0  0  0  0  0  0  0  0  0  0  0  0
   -4.6383    0.1769    0.0000 N   0  0  0  0  0  0  0  0  0  0  0  0
   -3.7783    1.4058    0.0000 C   0  0  0  0  0  0  0  0  0  0  0  0
   -2.9182    2.6348    0.0000 C   0  0  0  0  0  0  0  0  0  0  0  0
   -5.8672    1.0369    0.0000 C   0  0  0  0  0  0  0  0  0  0  0  0
   -7.0962    1.8969    0.0000 C   0  0  0  0  0  0  0  0  0  0  0  0
   -3.4093   -0.6832    0.0000 C   0  0  0  0  0  0  0  0  0  0  0  0
   -2.1804   -1.5432    0.0000 C   0  0  0  0  0  0  0  0  0  0  0  0
   -0.9514   -2.4033    0.0000 O   0  0  0  0  0  0  0  0  0  0  0  0
    0.4079   -1.7690    0.0000 C   0  0  0  0  0  0  0  0  0  0  0  0
    0.5382   -0.2747    0.0000 C   0  0  0  0  0  0  0  0  0  0  0  0
    1.8975    0.3596    0.0000 C   0  0  0  0  0  0  0  0  0  0  0  0
    3.1264   -0.5004    0.0000 C   0  0  0  0  0  0  0  0  0  0  0  0
    2.9961   -1.9948    0.0000 C   0  0  0  0  0  0  0  0  0  0  0  0
    1.6368   -2.6290    0.0000 C   0  0  0  0  0  0  0  0  0  0  0  0
    4.4857    0.1338    0.0000 C   0  0  0  0  0  0  0  0  0  0  0  0
    5.7147   -0.7262    0.0000 C   0  0  0  0  0  0  0  0  0  0  0  0
    7.0740   -0.0919    0.0000 C   0  0  0  0  0  0  0  0  0  0  0  0
    8.3029   -0.9520    0.0000 C   0  0  0  0  0  0  0  0  0  0  0  0
    9.6622   -0.3177    0.0000 C   0  0  0  0  0  0  0  0  0  0  0  0
    9.7926    1.1766    0.0000 C   0  0  0  0  0  0  0  0  0  0  0  0
    8.5636    2.0367    0.0000 C   0  0  0  0  0  0  0  0  0  0  0  0
    7.2043    1.4024    0.0000 C   0  0  0  0  0  0  0  0  0  0  0  0
   -7.5873   -1.4210    0.0000 H   0  0  0  0  0  0  0  0  0  0  0  0
   -5.1294   -3.1411    0.0000 H   0  0  0  0  0  0  0  0  0  0  0  0
   -7.2184   -3.5100    0.0000 H   0  0  0  0  0  0  0  0  0  0  0  0
   -6.2805   -0.6365    0.0000 H   0  0  0  0  0  0  0  0  0  0  0  0
   -4.8400   -1.6446    0.0000 H   0  0  0  0  0  0  0  0  0  0  0  0
   -2.4536    0.7020    0.0000 H   0  0  0  0  0  0  0  0  0  0  0  0
   -4.4366    1.9983    0.0000 H   0  0  0  0  0  0  0  0  0  0  0  0
   -1.6893    1.7747    0.0000 H   0  0  0  0  0  0  0  0  0  0  0  0
   -4.1472    3.4948    0.0000 H   0  0  0  0  0  0  0  0  0  0  0  0
   -2.0582    3.8637    0.0000 H   0  0  0  0  0  0  0  0  0  0  0  0
   -5.4516    1.8191    0.0000 H   0  0  0  0  0  0  0  0  0  0  0  0
   -6.4598    0.3785    0.0000 H   0  0  0  0  0  0  0  0  0  0  0  0
   -6.2362    3.1259    0.0000 H   0  0  0  0  0  0  0  0  0  0  0  0
   -7.9562    0.6680    0.0000 H   0  0  0  0  0  0  0  0  0  0  0  0
   -8.3252    2.7570    0.0000 H   0  0  0  0  0  0  0  0  0  0  0  0
   -3.8249   -1.4654    0.0000 H   0  0  0  0  0  0  0  0  0  0  0  0
   -2.4059    0.4318    0.0000 H   0  0  0  0  0  0  0  0  0  0  0  0
   -3.0404   -2.7722    0.0000 H   0  0  0  0  0  0  0  0  0  0  0  0
   -1.3203   -0.3143    0.0000 H   0  0  0  0  0  0  0  0  0  0  0  0
   -0.6908    0.5854    0.0000 H   0  0  0  0  0  0  0  0  0  0  0  0
    2.0278    1.8539    0.0000 H   0  0  0  0  0  0  0  0  0  0  0  0
    4.2251   -2.8548    0.0000 H   0  0  0  0  0  0  0  0  0  0  0  0
    1.5065   -4.1234    0.0000 H   0  0  0  0  0  0  0  0  0  0  0  0
    4.6161    1.6282    0.0000 H   0  0  0  0  0  0  0  0  0  0  0  0
    5.5844   -2.2205    0.0000 H   0  0  0  0  0  0  0  0  0  0  0  0
    8.1726   -2.4463    0.0000 H   0  0  0  0  0  0  0  0  0  0  0  0
   10.8912   -1.1777    0.0000 H   0  0  0  0  0  0  0  0  0  0  0  0
   11.1519    1.8109    0.0000 H   0  0  0  0  0  0  0  0  0  0  0  0
    8.6940    3.5310    0.0000 H   0  0  0  0  0  0  0  0  0  0  0  0
    5.9754    2.2625    0.0000 H   0  0  0  0  0  0  0  0  0  0  0  0
  1  2  1  0
  1 25  1  0
  1 26  1  0
  1 27  1  0
  2  3  1  0
  2 28  1  0
  2 29  1  0
  3  4  1  0
  3  6  1  0
  3  8  1  0
  4  5  1  0
  4 30  1  0
  4 31  1  0
  5 32  1  0
  5 33  1  0
  5 34  1  0
  6  7  1  0
  6 35  1  0
  6 36  1  0
  7 37  1  0
  7 38  1  0
  7 39  1  0
  8  9  1  0
  8 40  1  0
  8 41  1  0
  9 10  1  0
  9 42  1  0
  9 43  1  0
 10 11  1  0
 11 12  2  0
 11 16  1  0
 12 13  1  0
 12 44  1  0
 13 14  2  0
 13 45  1  0
 14 15  1  0
 14 17  1  0
 15 16  2  0
 15 46  1  0
 16 47  1  0
 17 18  2  0
 17 48  1  0
 18 19  1  0
 18 49  1  0
 19 20  2  0
 19 24  1  0
 20 21  1  0
 20 50  1  0
 21 22  2  0
 21 51  1  0
 22 23  1  0
 22 52  1  0
 23 24  2  0
 23 53  1  0
 24 54  1  0
M  CHG  1   3   1
M  END
$$$$

     RDKit          2D

 38 39  0  0  0  0  0  0  0  0999 V2000
   -0.6589   -4.2239    0.0000 C   0  0  0  0  0  0  0  0  0  0  0  0
   -1.0493   -2.7756    0.0000 C   0  0  0  0  0  0  0  0  0  0  0  0
   -2.4976   -3.1660    0.0000 C   0  0  0  0  0  0  0  0  0  0  0  0
    0.3990   -2.3852    0.0000 O   0  0  0  0  0  0  0  0  0  0  0  0
    0.7851   -0.9357    0.0000 C   0  0  0  0  0  0  0  0  0  0  0  0
    2.1846   -0.3961    0.0000 C   0  0  0  0  0  0  0  0  0  0  0  0
    2.1039    1.1017    0.0000 S   0  0  0  0  0  0  0  0  0  0  0  0
    0.6544    1.4878    0.0000 C   0  0  0  0  0  0  0  0  0  0  0  0
   -0.1606    0.2286    0.0000 C   0  0  0  0  0  0  0  0  0  0  0  0
   -1.6587    0.3049    0.0000 C   0  0  0  0  0  0  0  0  0  0  0  0
   -2.3417    1.6404    0.0000 C   0  0  0  0  0  0  0  0  0  0  0  0
   -1.5266    2.8996    0.0000 C   0  0  0  0  0  0  0  0  0  0  0  0
   -0.0285    2.8233    0.0000 C   0  0  0  0  0  0  0  0  0  0  0  0
   -3.8397    1.7166    0.0000 O   0  0  0  0  0  0  0  0  0  0  0  0
   -4.5227    3.0521    0.0000 C   0  0  0  0  0  0  0  0  0  0  0  0
    3.4439   -1.2112    0.0000 C   0  0  0  0  0  0  0  0  0  0  0  0
    3.3676   -2.7093    0.0000 O   0  0  0  0  0  0  0  0  0  0  0  0
    4.7794   -0.5282    0.0000 N   0  0  0  0  0  0  0  0  0  0  0  0
    4.8556    0.9698    0.0000 C   0  0  0  0  0  0  0  0  0  0  0  0
    3.6885    1.9121    0.0000 N   0  0  0  0  0  0  0  0  0  0  0  0
    4.2240    3.3132    0.0000 N   0  0  0  0  0  0  0  0  0  0  0  0
    5.7220    3.2370    0.0000 N   0  0  0  0  0  0  0  0  0  0  0  0
    6.1124    1.7887    0.0000 N   0  0  0  0  0  0  0  0  0  0  0  0
    0.0000    5.3876    0.0000 Na  0  0  0  0  0 15  0  0  0  0  0  0
    0.7894   -3.8335    0.0000 H   0  0  0  0  0  0  0  0  0  0  0  0
   -1.4797   -4.5569    0.0000 H   0  0  0  0  0  0  0  0  0  0  0  0
   -0.2686   -5.6722    0.0000 H   0  0  0  0  0  0  0  0  0  0  0  0
   -1.4397   -1.3273    0.0000 H   0  0  0  0  0  0  0  0  0  0  0  0
   -3.0616   -1.7760    0.0000 H   0  0  0  0  0  0  0  0  0  0  0  0
   -2.3731   -4.0429    0.0000 H   0  0  0  0  0  0  0  0  0  0  0  0
   -3.9459   -3.5563    0.0000 H   0  0  0  0  0  0  0  0  0  0  0  0
   -2.6212   -0.8456    0.0000 H   0  0  0  0  0  0  0  0  0  0  0  0
   -2.2096    4.2351    0.0000 H   0  0  0  0  0  0  0  0  0  0  0  0
    0.7866    4.0825    0.0000 H   0  0  0  0  0  0  0  0  0  0  0  0
   -5.8582    2.3692    0.0000 H   0  0  0  0  0  0  0  0  0  0  0  0
   -3.1872    3.7351    0.0000 H   0  0  0  0  0  0  0  0  0  0  0  0
   -5.2057    4.3876    0.0000 H   0  0  0  0  0  0  0  0  0  0  0  0
    6.0386   -1.3433    0.0000 H   0  0  0  0  0  0  0  0  0  0  0  0
  1  2  1  0
  1 25  1  0
  1 26  1  0
  1 27  1  0
  2  3  1  0
  2  4  1  0
  2 28  1  0
  3 29  1  0
  3 30  1  0
  3 31  1  0
  4  5  1  0
  5  6  2  0
  5  9  1  0
  6  7  1  0
  6 16  1  0
  7  8  1  0
  8  9  2  0
  8 13  1  0
  9 10  1  0
 10 11  2  0
 10 32  1  0
 11 12  1  0
 11 14  1  0
 12 13  2  0
 12 33  1  0
 13 34  1  0
 14 15  1  0
 15 35  1  0
 15 36  1  0
 15 37  1  0
 16 17  2  0
 16 18  1  0
 18 19  1  0
 18 38  1  0
 19 20  2  0
 19 23  1  0
 20 21  1  0
 21 22  2  0
 22 23  1  0
M  CHG  2  23  -1  24   1
M  END
$$$$

     RDKit          2D

 37 40  0  0  0  0  0  0  0  0999 V2000
   -4.6987   -1.4616    0.0000 C   0  0  0  0  0  0  0  0  0  0  0  0
   -4.1782   -0.0548    0.0000 C   0  0  0  0  0  0  0  0  0  0  0  0
   -2.7341    0.3509    0.0000 C   0  0  0  0  0  0  0  0  0  0  0  0
   -2.6737    1.8497    0.0000 C   0  0  0  0  0  0  0  0  0  0  0  0
   -4.0805    2.3702    0.0000 N   0  0  0  0  0  0  0  0  0  0  0  0
   -5.0103    1.1932    0.0000 N   0  0  0  0  0  0  0  0  0  0  0  0
   -1.4643    2.7370    0.0000 N   0  0  0  0  0  0  0  0  0  0  0  0
   -0.0165    2.3446    0.0000 C   0  0  0  0  0  0  0  0  0  0  0  0
    0.5794    0.9680    0.0000 C   0  0  0  0  0  0  0  0  0  0  0  0
    2.0695    0.7958    0.0000 C   0  0  0  0  0  0  0  0  0  0  0  0
    2.9637    2.0002    0.0000 C   0  0  0  0  0  0  0  0  0  0  0  0
    2.3678    3.3767    0.0000 C   0  0  0  0  0  0  0  0  0  0  0  0
    0.8777    3.5489    0.0000 C   0  0  0  0  0  0  0  0  0  0  0  0
    4.4538    1.8280    0.0000 N   0  0  0  0  0  0  0  0  0  0  0  0
    5.3479    3.0323    0.0000 O   0  0  0  0  0  0  0  0  0  0  0  0
    5.0497    0.4514    0.0000 O   0  0  0  0  0  0  0  0  0  0  0  0
   -0.1253   -0.3561    0.0000 C   0  0  0  0  0  0  0  0  0  0  0  0
   -1.5999   -0.6308    0.0000 N   0  0  0  0  0  0  0  0  0  0  0  0
    0.7620   -1.5656    0.0000 C   0  0  0  0  0  0  0  0  0  0  0  0
    2.2530   -1.4019    0.0000 C   0  0  0  0  0  0  0  0  0  0  0  0
    3.1403   -2.6113    0.0000 C   0  0  0  0  0  0  0  0  0  0  0  0
    2.5365   -3.9845    0.0000 C   0  0  0  0  0  0  0  0  0  0  0  0
    1.0455   -4.1481    0.0000 C   0  0  0  0  0  0  0  0  0  0  0  0
    0.1582   -2.9387    0.0000 C   0  0  0  0  0  0  0  0  0  0  0  0
   -1.3328   -3.1024    0.0000 Cl  0  0  0  0  0  0  0  0  0  0  0  0
   -6.1055   -0.9410    0.0000 H   0  0  0  0  0  0  0  0  0  0  0  0
   -3.2920   -1.9822    0.0000 H   0  0  0  0  0  0  0  0  0  0  0  0
   -5.2193   -2.8684    0.0000 H   0  0  0  0  0  0  0  0  0  0  0  0
   -6.5091    1.2536    0.0000 H   0  0  0  0  0  0  0  0  0  0  0  0
   -1.7389    4.2116    0.0000 H   0  0  0  0  0  0  0  0  0  0  0  0
    2.4730    0.1083    0.0000 H   0  0  0  0  0  0  0  0  0  0  0  0
    3.2619    4.5811    0.0000 H   0  0  0  0  0  0  0  0  0  0  0  0
    0.2818    4.9255    0.0000 H   0  0  0  0  0  0  0  0  0  0  0  0
    2.6605   -0.7167    0.0000 H   0  0  0  0  0  0  0  0  0  0  0  0
    4.6314   -2.4476    0.0000 H   0  0  0  0  0  0  0  0  0  0  0  0
    3.4238   -5.1939    0.0000 H   0  0  0  0  0  0  0  0  0  0  0  0
    0.4417   -5.5213    0.0000 H   0  0  0  0  0  0  0  0  0  0  0  0
  1  2  1  0
  1 26  1  0
  1 27  1  0
  1 28  1  0
  2  3  2  0
  2  6  1  0
  3  4  1  0
  3 18  1  0
  4  5  2  0
  4  7  1  0
  5  6  1  0
  6 29  1  0
  7  8  1  0
  7 30  1  0
  8  9  2  0
  8 13  1  0
  9 10  1  0
  9 17  1  0
 10 11  2  0
 10 31  1  0
 11 12  1  0
 11 14  1  0
 12 13  2  0
 12 32  1  0
 13 33  1  0
 14 15  2  0
 14 16  1  0
 17 18  2  0
 17 19  1  0
 19 20  2  0
 19 24  1  0
 20 21  1  0
 20 34  1  0
 21 22  2  0
 21 35  1  0
 22 23  1  0
 22 36  1  0
 23 24  2  0
 23 37  1  0
 24 25  1  0
M  CHG  2  14   1  16  -1
M  END
$$$$

     RDKit          2D

 49 50  0  0  0  0  0  0  0  0999 V2000
    4.3338   -0.8813    0.0000 C   0  0  0  0  0  0  0  0  0  0  0  0
    2.8339   -0.8950    0.0000 C   0  0  0  0  0  0  0  0  0  0  0  0
    1.4291   -1.4209    0.0000 C   0  0  0  0  0  0  0  0  0  0  0  0
    1.1821   -2.9005    0.0000 C   0  0  0  0  0  0  0  0  0  0  0  0
   -0.2227   -3.4264    0.0000 C   0  0  0  0  0  0  0  0  0  0  0  0
   -1.3805   -2.4727    0.0000 C   0  0  0  0  0  0  0  0  0  0  0  0
   -1.1336   -0.9932    0.0000 C   0  0  0  0  0  0  0  0  0  0  0  0
    0.2712   -0.4673    0.0000 C   0  0  0  0  0  0  0  0  0  0  0  0
    0.5182    1.0122    0.0000 C   0  0  0  0  0  0  0  0  0  0  0  0
   -0.6397    1.9659    0.0000 C   0  0  0  0  0  0  0  0  0  0  0  0
   -2.0444    1.4400    0.0000 C   0  0  0  0  0  0  0  0  0  0  0  0
   -3.4492    0.9141    0.0000 C   0  0  0  0  0  0  0  0  0  0  0  0
   -4.8540    0.3882    0.0000 N   0  0  0  0  0  0  0  0  0  0  0  0
   -6.0119    1.3418    0.0000 C   0  0  0  0  0  0  0  0  0  0  0  0
   -5.1010   -1.0914    0.0000 C   0  0  0  0  0  0  0  0  0  0  0  0
    1.9230    1.5381    0.0000 C   0  0  0  0  0  0  0  0  0  0  0  0
    2.1699    3.0177    0.0000 C   0  0  0  0  0  0  0  0  0  0  0  0
    3.5747    3.5436    0.0000 C   0  0  0  0  0  0  0  0  0  0  0  0
    4.7325    2.5899    0.0000 C   0  0  0  0  0  0  0  0  0  0  0  0
    4.4856    1.1104    0.0000 C   0  0  0  0  0  0  0  0  0  0  0  0
    3.0808    0.5845    0.0000 C   0  0  0  0  0  0  0  0  0  0  0  0
    3.1078   -2.3698    0.0000 C   0  0  0  0  0  0  0  0  0  0  0  0
   -0.7500    6.0231    0.0000 Cl  0  0  0  0  0  0  0  0  0  0  0  0
    4.4382   -1.6716    0.0000 H   0  0  0  0  0  0  0  0  0  0  0  0
    4.6170    0.3002    0.0000 H   0  0  0  0  0  0  0  0  0  0  0  0
    5.8337   -0.8676    0.0000 H   0  0  0  0  0  0  0  0  0  0  0  0
    2.3400   -3.8541    0.0000 H   0  0  0  0  0  0  0  0  0  0  0  0
   -0.4696   -4.9059    0.0000 H   0  0  0  0  0  0  0  0  0  0  0  0
   -2.7853   -2.9986    0.0000 H   0  0  0  0  0  0  0  0  0  0  0  0
   -2.2914   -0.0396    0.0000 H   0  0  0  0  0  0  0  0  0  0  0  0
   -0.3927    3.4454    0.0000 H   0  0  0  0  0  0  0  0  0  0  0  0
   -1.3512    0.1098    0.0000 H   0  0  0  0  0  0  0  0  0  0  0  0
   -2.5703    2.8448    0.0000 H   0  0  0  0  0  0  0  0  0  0  0  0
   -3.0985   -0.5443    0.0000 H   0  0  0  0  0  0  0  0  0  0  0  0
   -3.9751    2.3189    0.0000 H   0  0  0  0  0  0  0  0  0  0  0  0
   -6.9655    0.1840    0.0000 H   0  0  0  0  0  0  0  0  0  0  0  0
   -5.0582    2.4996    0.0000 H   0  0  0  0  0  0  0  0  0  0  0  0
   -7.1697    2.2954    0.0000 H   0  0  0  0  0  0  0  0  0  0  0  0
   -6.5805   -0.8444    0.0000 H   0  0  0  0  0  0  0  0  0  0  0  0
   -3.6214   -1.3383    0.0000 H   0  0  0  0  0  0  0  0  0  0  0  0
   -5.3479   -2.5709    0.0000 H   0  0  0  0  0  0  0  0  0  0  0  0
    1.0121    3.9713    0.0000 H   0  0  0  0  0  0  0  0  0  0  0  0
    3.8217    5.0231    0.0000 H   0  0  0  0  0  0  0  0  0  0  0  0
    6.1373    3.1159    0.0000 H   0  0  0  0  0  0  0  0  0  0  0  0
    5.6434    0.1568    0.0000 H   0  0  0  0  0  0  0  0  0  0  0  0
    3.9035   -2.3208    0.0000 H   0  0  0  0  0  0  0  0  0  0  0  0
    1.7432   -2.9925    0.0000 H   0  0  0  0  0  0  0  0  0  0  0  0
    3.3818   -3.8446    0.0000 H   0  0  0  0  0  0  0  0  0  0  0  0
    0.7500    6.0231    0.0000 H   0  0  0  0  0  0  0  0  0  0  0  0
  1  2  1  0
  1 24  1  0
  1 25  1  0
  1 26  1  0
  2  3  1  0
  2 21  1  0
  2 22  1  0
  3  4  1  0
  3  8  2  0
  4  5  2  0
  4 27  1  0
  5  6  1  0
  5 28  1  0
  6  7  2  0
  6 29  1  0
  7  8  1  0
  7 30  1  0
  8  9  1  0
  9 10  2  0
  9 16  1  0
 10 11  1  0
 10 31  1  0
 11 12  1  0
 11 32  1  0
 11 33  1  0
 12 13  1  0
 12 34  1  0
 12 35  1  0
 13 14  1  0
 13 15  1  0
 14 36  1  0
 14 37  1  0
 14 38  1  0
 15 39  1  0
 15 40  1  0
 15 41  1  0
 16 17  1  0
 16 21  2  0
 17 18  2  0
 17 42  1  0
 18 19  1  0
 18 43  1  0
 19 20  2  0
 19 44  1  0
 20 21  1  0
 20 45  1  0
 22 46  1  0
 22 47  1  0
 22 48  1  0
 23 49  1  0
M  END
$$$$

     RDKit          2D

 26 27  0  0  0  0  0  0  0  0999 V2000
    1.5000   -1.2990    0.0000 C   0  0  0  0  0  0  0  0  0  0  0  0
    0.7500   -0.0000    0.0000 C   0  0  0  0  0  0  0  0  0  0  0  0
    1.5000    1.2990    0.0000 C   0  0  0  0  0  0  0  0  0  0  0  0
    3.0000    1.2990    0.0000 C   0  0  0  0  0  0  0  0  0  0  0  0
    3.7500    0.0000    0.0000 C   0  0  0  0  0  0  0  0  0  0  0  0
    3.0000   -1.2990    0.0000 C   0  0  0  0  0  0  0  0  0  0  0  0
    3.7500   -2.5981    0.0000 Cl  0  0  0  0  0  0  0  0  0  0  0  0
    5.2500    0.0000    0.0000 N   0  0  0  0  0  0  0  0  0  0  0  0
    0.7500    2.5981    0.0000 Cl  0  0  0  0  0  0  0  0  0  0  0  0
   -0.7500   -0.0000    0.0000 C   0  0  0  0  0  0  0  0  0  0  0  0
   -1.5000    1.2990    0.0000 C   0  0  0  0  0  0  0  0  0  0  0  0
   -3.0000    1.2990    0.0000 C   0  0  0  0  0  0  0  0  0  0  0  0
   -3.7500    0.0000    0.0000 C   0  0  0  0  0  0  0  0  0  0  0  0
   -3.0000   -1.2990    0.0000 C   0  0  0  0  0  0  0  0  0  0  0  0
   -1.5000   -1.2990    0.0000 C   0  0  0  0  0  0  0  0  0  0  0  0
   -0.7500   -2.5981    0.0000 Cl  0  0  0  0  0  0  0  0  0  0  0  0
   -5.2500    0.0000    0.0000 N   0  0  0  0  0  0  0  0  0  0  0  0
   -3.7500    2.5981    0.0000 Cl  0  0  0  0  0  0  0  0  0  0  0  0
    0.7500   -2.5981    0.0000 H   0  0  0  0  0  0  0  0  0  0  0  0
    3.7500    2.5981    0.0000 H   0  0  0  0  0  0  0  0  0  0  0  0
    6.0000   -1.2990    0.0000 H   0  0  0  0  0  0  0  0  0  0  0  0
    6.0000    1.2990    0.0000 H   0  0  0  0  0  0  0  0  0  0  0  0
   -0.7500    2.5981    0.0000 H   0  0  0  0  0  0  0  0  0  0  0  0
   -3.7500   -2.5981    0.0000 H   0  0  0  0  0  0  0  0  0  0  0  0
   -6.0000   -1.2990    0.0000 H   0  0  0  0  0  0  0  0  0  0  0  0
   -6.0000    1.2990    0.0000 H   0  0  0  0  0  0  0  0  0  0  0  0
  1  2  2  0
  1  6  1  0
  1 19  1  0
  2  3  1  0
  2 10  1  0
  3  4  2  0
  3  9  1  0
  4  5  1  0
  4 20  1  0
  5  6  2  0
  5  8  1  0
  6  7  1  0
  8 21  1  0
  8 22  1  0
 10 11  2  0
 10 15  1  0
 11 12  1  0
 11 23  1  0
 12 13  2  0
 12 18  1  0
 13 14  1  0
 13 17  1  0
 14 15  2  0
 14 24  1  0
 15 16  1  0
 17 25  1  0
 17 26  1  0
M  END
$$$$

     RDKit          2D

 40 43  0  0  0  0  0  0  0  0999 V2000
   -1.5009    3.6618    0.0000 C   0  0  0  0  0  0  0  0  0  0  0  0
   -0.0554    4.0623    0.0000 C   0  0  0  0  0  0  0  0  0  0  0  0
    1.0142    3.0106    0.0000 C   0  0  0  0  0  0  0  0  0  0  0  0
    0.6383    1.5585    0.0000 C   0  0  0  0  0  0  0  0  0  0  0  0
   -0.8072    1.1580    0.0000 C   0  0  0  0  0  0  0  0  0  0  0  0
   -1.8769    2.2097    0.0000 C   0  0  0  0  0  0  0  0  0  0  0  0
   -1.1832   -0.2941    0.0000 C   0  0  0  0  0  0  0  0  0  0  0  0
   -0.1136   -1.3457    0.0000 N   0  0  0  0  0  0  0  0  0  0  0  0
    1.3320   -0.9452    0.0000 N   0  0  0  0  0  0  0  0  0  0  0  0
    1.7079    0.5069    0.0000 C   0  0  0  0  0  0  0  0  0  0  0  0
    3.1535    0.9074    0.0000 N   0  0  0  0  0  0  0  0  0  0  0  0
    4.2231   -0.1443    0.0000 C   0  0  0  0  0  0  0  0  0  0  0  0
    5.6686    0.2562    0.0000 C   0  0  0  0  0  0  0  0  0  0  0  0
    6.7382   -0.7954    0.0000 C   0  0  0  0  0  0  0  0  0  0  0  0
    6.3623   -2.2475    0.0000 C   0  0  0  0  0  0  0  0  0  0  0  0
    4.9167   -2.6480    0.0000 C   0  0  0  0  0  0  0  0  0  0  0  0
    3.8471   -1.5964    0.0000 C   0  0  0  0  0  0  0  0  0  0  0  0
    7.4319   -3.2992    0.0000 Cl  0  0  0  0  0  0  0  0  0  0  0  0
   -2.6287   -0.6946    0.0000 C   0  0  0  0  0  0  0  0  0  0  0  0
   -4.0743   -1.0951    0.0000 C   0  0  0  0  0  0  0  0  0  0  0  0
   -5.1439   -0.0435    0.0000 C   0  0  0  0  0  0  0  0  0  0  0  0
   -6.5894   -0.4439    0.0000 C   0  0  0  0  0  0  0  0  0  0  0  0
   -6.9654   -1.8961    0.0000 N   0  0  0  0  0  0  0  0  0  0  0  0
   -5.8958   -2.9477    0.0000 C   0  0  0  0  0  0  0  0  0  0  0  0
   -4.4502   -2.5472    0.0000 C   0  0  0  0  0  0  0  0  0  0  0  0
   -2.5705    4.7134    0.0000 H   0  0  0  0  0  0  0  0  0  0  0  0
    0.3206    5.5144    0.0000 H   0  0  0  0  0  0  0  0  0  0  0  0
    2.4598    3.4111    0.0000 H   0  0  0  0  0  0  0  0  0  0  0  0
   -3.3224    1.8092    0.0000 H   0  0  0  0  0  0  0  0  0  0  0  0
    3.5294    2.3595    0.0000 H   0  0  0  0  0  0  0  0  0  0  0  0
    6.0446    1.7084    0.0000 H   0  0  0  0  0  0  0  0  0  0  0  0
    8.1838   -0.3949    0.0000 H   0  0  0  0  0  0  0  0  0  0  0  0
    4.5408   -4.1001    0.0000 H   0  0  0  0  0  0  0  0  0  0  0  0
    2.4016   -1.9969    0.0000 H   0  0  0  0  0  0  0  0  0  0  0  0
   -2.2282   -2.1401    0.0000 H   0  0  0  0  0  0  0  0  0  0  0  0
   -3.0292    0.7510    0.0000 H   0  0  0  0  0  0  0  0  0  0  0  0
   -4.7679    1.4087    0.0000 H   0  0  0  0  0  0  0  0  0  0  0  0
   -7.6590    0.6077    0.0000 H   0  0  0  0  0  0  0  0  0  0  0  0
   -6.2717   -4.3998    0.0000 H   0  0  0  0  0  0  0  0  0  0  0  0
   -3.3806   -3.5988    0.0000 H   0  0  0  0  0  0  0  0  0  0  0  0
  1  2  2  0
  1  6  1  0
  1 26  1  0
  2  3  1  0
  2 27  1  0
  3  4  2  0
  3 28  1  0
  4  5  1  0
  4 10  1  0
  5  6  2  0
  5  7  1  0
  6 29  1  0
  7  8  2  0
  7 19  1  0
  8  9  1  0
  9 10  2  0
 10 11  1  0
 11 12  1  0
 11 30  1  0
 12 13  2  0
 12 17  1  0
 13 14  1  0
 13 31  1  0
 14 15  2  0
 14 32  1  0
 15 16  1  0
 15 18  1  0
 16 17  2  0
 16 33  1  0
 17 34  1  0
 19 20  1  0
 19 35  1  0
 19 36  1  0
 20 21  2  0
 20 25  1  0
 21 22  1  0
 21 37  1  0
 22 23  2  0
 22 38  1  0
 23 24  1  0
 24 25  2  0
 24 39  1  0
 25 40  1  0
M  END
$$$$

     RDKit          2D

 56 59  0  0  1  0  0  0  0  0999 V2000
    7.6023   -2.1788    0.0000 C   0  0  0  0  0  0  0  0  0  0  0  0
    6.5257   -1.1344    0.0000 C   0  0  0  0  0  0  0  0  0  0  0  0
    5.4491   -0.0899    0.0000 C   0  0  0  0  0  0  0  0  0  0  0  0
    4.0802    0.5233    0.0000 C   0  0  0  0  0  0  0  0  0  0  0  0
    3.9268    2.0155    0.0000 C   0  0  0  0  0  0  0  0  0  0  0  0
    5.1423    2.8944    0.0000 C   0  0  0  0  0  0  0  0  0  0  0  0
    6.5113    2.2811    0.0000 O   0  0  0  0  0  0  0  0  0  0  0  0
    6.6646    0.7890    0.0000 C   0  0  0  0  0  0  0  0  0  0  0  0
    7.7096    0.4669    0.0000 O   0  0  0  0  0  0  0  0  0  0  0  0
    2.5579    2.6287    0.0000 C   0  0  0  0  0  0  0  0  0  0  0  0
    2.4045    4.1209    0.0000 O   0  0  0  0  0  0  0  0  0  0  0  0
    1.3423    1.7498    0.0000 N   0  0  0  0  0  0  0  0  0  0  0  0
   -0.1242    2.0650    0.0000 C   0  0  0  0  0  0  0  0  0  0  0  0
   -0.8771    0.7677    0.0000 C   0  0  0  0  0  0  0  0  0  0  0  0
   -2.3451    0.4592    0.0000 C   0  0  0  0  0  0  0  0  0  0  0  0
   -2.8119   -0.9663    0.0000 C   0  0  0  0  0  0  0  0  0  0  0  0
   -1.8107   -2.0833    0.0000 C   0  0  0  0  0  0  0  0  0  0  0  0
   -2.2775   -3.5088    0.0000 C   0  0  0  0  0  0  0  0  0  0  0  0
   -3.7454   -3.8173    0.0000 C   0  0  0  0  0  0  0  0  0  0  0  0
   -4.7466   -2.7003    0.0000 C   0  0  0  0  0  0  0  0  0  0  0  0
   -4.2798   -1.2748    0.0000 C   0  0  0  0  0  0  0  0  0  0  0  0
   -5.2809   -0.1578    0.0000 C   0  0  0  0  0  0  0  0  0  0  0  0
   -6.2821    0.9592    0.0000 N   0  0  0  0  0  0  0  0  0  0  0  0
   -5.8153    2.3847    0.0000 C   0  0  0  0  0  0  0  0  0  0  0  0
   -7.7500    0.6507    0.0000 C   0  0  0  0  0  0  0  0  0  0  0  0
   -6.2145   -3.0088    0.0000 O   0  0  0  0  0  0  0  0  0  0  0  0
   -0.3428   -1.7748    0.0000 N   0  0  0  0  0  0  0  0  0  0  0  0
    0.1240   -0.3493    0.0000 C   0  0  0  0  0  0  0  0  0  0  0  0
    1.4957    0.2577    0.0000 C   0  0  0  0  0  0  0  0  0  0  0  0
    2.8646   -0.3556    0.0000 C   0  0  0  0  0  0  0  0  0  0  0  0
    4.6075   -1.3315    0.0000 O   0  0  0  0  0  0  0  0  0  0  0  0
   -0.7500    5.1360    0.0000 Cl  0  0  0  0  0  0  0  0  0  0  0  0
    8.6468   -1.1022    0.0000 H   0  0  0  0  0  0  0  0  0  0  0  0
    6.5579   -3.2554    0.0000 H   0  0  0  0  0  0  0  0  0  0  0  0
    8.6790   -3.2233    0.0000 H   0  0  0  0  0  0  0  0  0  0  0  0
    7.3771   -0.4482    0.0000 H   0  0  0  0  0  0  0  0  0  0  0  0
    5.8657   -2.0062    0.0000 H   0  0  0  0  0  0  0  0  0  0  0  0
    4.0657    3.9388    0.0000 H   0  0  0  0  0  0  0  0  0  0  0  0
    5.9840    4.1360    0.0000 H   0  0  0  0  0  0  0  0  0  0  0  0
    0.3426    3.4906    0.0000 H   0  0  0  0  0  0  0  0  0  0  0  0
   -1.4931    2.6783    0.0000 H   0  0  0  0  0  0  0  0  0  0  0  0
   -3.3462    1.5762    0.0000 H   0  0  0  0  0  0  0  0  0  0  0  0
   -1.2764   -4.6258    0.0000 H   0  0  0  0  0  0  0  0  0  0  0  0
   -4.2122   -5.2429    0.0000 H   0  0  0  0  0  0  0  0  0  0  0  0
   -4.1639    0.8433    0.0000 H   0  0  0  0  0  0  0  0  0  0  0  0
   -6.3979   -1.1589    0.0000 H   0  0  0  0  0  0  0  0  0  0  0  0
   -7.2408    2.8515    0.0000 H   0  0  0  0  0  0  0  0  0  0  0  0
   -4.3898    1.9179    0.0000 H   0  0  0  0  0  0  0  0  0  0  0  0
   -5.3485    3.8103    0.0000 H   0  0  0  0  0  0  0  0  0  0  0  0
   -8.0585    2.1186    0.0000 H   0  0  0  0  0  0  0  0  0  0  0  0
   -7.4415   -0.8172    0.0000 H   0  0  0  0  0  0  0  0  0  0  0  0
   -9.2179    0.3422    0.0000 H   0  0  0  0  0  0  0  0  0  0  0  0
   -7.2157   -1.8918    0.0000 H   0  0  0  0  0  0  0  0  0  0  0  0
    3.0180   -1.8477    0.0000 H   0  0  0  0  0  0  0  0  0  0  0  0
    4.9611   -2.3663    0.0000 H   0  0  0  0  0  0  0  0  0  0  0  0
    0.7500    5.1360    0.0000 H   0  0  0  0  0  0  0  0  0  0  0  0
  1  2  1  0
  1 33  1  0
  1 34  1  0
  1 35  1  0
  2  3  1  0
  2 36  1  0
  2 37  1  0
  3  4  1  0
  3  8  1  0
  3 31  1  1
  4  5  2  0
  4 30  1  0
  5  6  1  0
  5 10  1  0
  6  7  1  0
  6 38  1  0
  6 39  1  0
  7  8  1  0
  8  9  2  0
 10 11  2  0
 10 12  1  0
 12 13  1  0
 12 29  1  0
 13 14  1  0
 13 40  1  0
 13 41  1  0
 14 15  1  0
 14 28  2  0
 15 16  2  0
 15 42  1  0
 16 17  1  0
 16 21  1  0
 17 18  1  0
 17 27  2  0
 18 19  2  0
 18 43  1  0
 19 20  1  0
 19 44  1  0
 20 21  2  0
 20 26  1  0
 21 22  1  0
 22 23  1  0
 22 45  1  0
 22 46  1  0
 23 24  1  0
 23 25  1  0
 24 47  1  0
 24 48  1  0
 24 49  1  0
 25 50  1  0
 25 51  1  0
 25 52  1  0
 26 53  1  0
 27 28  1  0
 28 29  1  0
 29 30  2  0
 30 54  1  0
 31 55  1  0
 32 56  1  0
M  END
$$$$

     RDKit          2D

 88 91  0  0  1  0  0  0  0  0999 V2000
    4.5784    3.3251    0.0000 C   0  0  0  0  0  0  0  0  0  0  0  0
    4.5698    1.8251    0.0000 C   0  0  0  0  0  0  0  0  0  0  0  0
    5.9436    2.4273    0.0000 C   0  0  0  0  0  0  0  0  0  0  0  0
    7.1520    1.5386    0.0000 C   0  0  0  0  0  0  0  0  0  0  0  0
    6.9866    0.0478    0.0000 C   0  0  0  0  0  0  0  0  0  0  0  0
    5.6128   -0.5544    0.0000 C   0  0  0  0  0  0  0  0  0  0  0  0
    4.4044    0.3343    0.0000 C   0  0  0  0  0  0  0  0  0  0  0  0
    2.9354    0.0309    0.0000 C   0  0  0  0  0  0  0  0  0  0  0  0
    2.1929    1.3342    0.0000 C   0  0  0  0  0  0  0  0  0  0  0  0
    3.2030    2.4431    0.0000 C   0  0  0  0  0  0  0  0  0  0  0  0
    3.9605    3.7378    0.0000 O   0  0  0  0  0  0  0  0  0  0  0  0
    5.4474   -2.0453    0.0000 C   0  0  0  0  0  0  0  0  0  0  0  0
    6.6558   -2.9339    0.0000 C   0  0  0  0  0  0  0  0  0  0  0  0
    8.0296   -2.3318    0.0000 C   0  0  0  0  0  0  0  0  0  0  0  0
    8.1950   -0.8409    0.0000 C   0  0  0  0  0  0  0  0  0  0  0  0
    9.5688   -0.2387    0.0000 C   0  0  0  0  0  0  0  0  0  0  0  0
   10.7773   -1.1274    0.0000 C   0  0  0  0  0  0  0  0  0  0  0  0
   10.6119   -2.6182    0.0000 C   0  0  0  0  0  0  0  0  0  0  0  0
    9.2380   -3.2204    0.0000 C   0  0  0  0  0  0  0  0  0  0  0  0
   11.8203   -3.5069    0.0000 O   0  0  0  0  0  0  0  0  0  0  0  0
    4.0079   -1.6235    0.0000 C   0  0  0  0  0  0  0  0  0  0  0  0
    2.5684   -1.2017    0.0000 C   0  0  0  0  0  0  0  0  0  0  0  0
    1.1289   -0.7799    0.0000 C   0  0  0  0  0  0  0  0  0  0  0  0
   -0.3105   -0.3582    0.0000 C   0  0  0  0  0  0  0  0  0  0  0  0
   -1.7500    0.0636    0.0000 C   0  0  0  0  0  0  0  0  0  0  0  0
   -3.1895    0.4854    0.0000 C   0  0  0  0  0  0  0  0  0  0  0  0
   -4.6290    0.9072    0.0000 C   0  0  0  0  0  0  0  0  0  0  0  0
   -6.0685    1.3289    0.0000 C   0  0  0  0  0  0  0  0  0  0  0  0
   -7.5079    1.7507    0.0000 C   0  0  0  0  0  0  0  0  0  0  0  0
   -8.9474    2.1725    0.0000 S   0  0  0  0  0  0  0  0  0  0  0  0
   -9.3019    3.6300    0.0000 O   0  0  0  0  0  0  0  0  0  0  0  0
  -10.0324    1.1368    0.0000 C   0  0  0  0  0  0  0  0  0  0  0  0
  -11.1174    0.1010    0.0000 C   0  0  0  0  0  0  0  0  0  0  0  0
  -12.2024   -0.9347    0.0000 C   0  0  0  0  0  0  0  0  0  0  0  0
  -13.2875   -1.9705    0.0000 C   0  0  0  0  0  0  0  0  0  0  0  0
  -14.3725   -3.0062    0.0000 C   0  0  0  0  0  0  0  0  0  0  0  0
  -15.4575   -4.0419    0.0000 F   0  0  0  0  0  0  0  0  0  0  0  0
  -15.4082   -1.9212    0.0000 F   0  0  0  0  0  0  0  0  0  0  0  0
  -13.3367   -4.0912    0.0000 F   0  0  0  0  0  0  0  0  0  0  0  0
  -12.2517   -3.0555    0.0000 F   0  0  0  0  0  0  0  0  0  0  0  0
  -14.3232   -0.8855    0.0000 F   0  0  0  0  0  0  0  0  0  0  0  0
    3.0785    3.3337    0.0000 H   0  0  0  0  0  0  0  0  0  0  0  0
    6.0784    3.3164    0.0000 H   0  0  0  0  0  0  0  0  0  0  0  0
    4.5871    4.8251    0.0000 H   0  0  0  0  0  0  0  0  0  0  0  0
    7.0286    3.4630    0.0000 H   0  0  0  0  0  0  0  0  0  0  0  0
    5.4388    3.8398    0.0000 H   0  0  0  0  0  0  0  0  0  0  0  0
    8.6322    1.2955    0.0000 H   0  0  0  0  0  0  0  0  0  0  0  0
    7.8173    2.8830    0.0000 H   0  0  0  0  0  0  0  0  0  0  0  0
    8.4236    0.4780    0.0000 H   0  0  0  0  0  0  0  0  0  0  0  0
    4.1758   -0.9846    0.0000 H   0  0  0  0  0  0  0  0  0  0  0  0
    5.7077    1.0767    0.0000 H   0  0  0  0  0  0  0  0  0  0  0  0
    2.8481   -1.4666    0.0000 H   0  0  0  0  0  0  0  0  0  0  0  0
    1.4567   -0.2210    0.0000 H   0  0  0  0  0  0  0  0  0  0  0  0
    0.8768    0.6146    0.0000 H   0  0  0  0  0  0  0  0  0  0  0  0
    1.1957    2.4547    0.0000 H   0  0  0  0  0  0  0  0  0  0  0  0
    1.9946    3.3318    0.0000 H   0  0  0  0  0  0  0  0  0  0  0  0
    3.2180    5.0411    0.0000 H   0  0  0  0  0  0  0  0  0  0  0  0
    4.7821   -3.3896    0.0000 H   0  0  0  0  0  0  0  0  0  0  0  0
    7.4874   -4.1823    0.0000 H   0  0  0  0  0  0  0  0  0  0  0  0
    5.5708   -3.9697    0.0000 H   0  0  0  0  0  0  0  0  0  0  0  0
    9.7342    1.2521    0.0000 H   0  0  0  0  0  0  0  0  0  0  0  0
   12.1511   -0.5252    0.0000 H   0  0  0  0  0  0  0  0  0  0  0  0
    9.0726   -4.7113    0.0000 H   0  0  0  0  0  0  0  0  0  0  0  0
   11.6549   -4.9978    0.0000 H   0  0  0  0  0  0  0  0  0  0  0  0
    3.5861   -3.0630    0.0000 H   0  0  0  0  0  0  0  0  0  0  0  0
    4.0688   -0.1247    0.0000 H   0  0  0  0  0  0  0  0  0  0  0  0
    2.1466   -2.6412    0.0000 H   0  0  0  0  0  0  0  0  0  0  0  0
    2.6293    0.2970    0.0000 H   0  0  0  0  0  0  0  0  0  0  0  0
    0.7072   -2.2194    0.0000 H   0  0  0  0  0  0  0  0  0  0  0  0
    1.3721    0.7002    0.0000 H   0  0  0  0  0  0  0  0  0  0  0  0
   -0.7323   -1.7976    0.0000 H   0  0  0  0  0  0  0  0  0  0  0  0
    0.1112    1.0813    0.0000 H   0  0  0  0  0  0  0  0  0  0  0  0
   -2.1718   -1.3759    0.0000 H   0  0  0  0  0  0  0  0  0  0  0  0
   -1.3282    1.5031    0.0000 H   0  0  0  0  0  0  0  0  0  0  0  0
   -2.7677    1.9249    0.0000 H   0  0  0  0  0  0  0  0  0  0  0  0
   -3.6113   -0.9541    0.0000 H   0  0  0  0  0  0  0  0  0  0  0  0
   -5.0508   -0.5323    0.0000 H   0  0  0  0  0  0  0  0  0  0  0  0
   -4.2072    2.3466    0.0000 H   0  0  0  0  0  0  0  0  0  0  0  0
   -5.6467    2.7684    0.0000 H   0  0  0  0  0  0  0  0  0  0  0  0
   -6.4902   -0.1105    0.0000 H   0  0  0  0  0  0  0  0  0  0  0  0
   -7.9297    0.3112    0.0000 H   0  0  0  0  0  0  0  0  0  0  0  0
   -7.0862    3.1902    0.0000 H   0  0  0  0  0  0  0  0  0  0  0  0
  -11.0682    2.2218    0.0000 H   0  0  0  0  0  0  0  0  0  0  0  0
   -8.9967    0.0517    0.0000 H   0  0  0  0  0  0  0  0  0  0  0  0
  -10.0817   -0.9840    0.0000 H   0  0  0  0  0  0  0  0  0  0  0  0
  -12.1532    1.1860    0.0000 H   0  0  0  0  0  0  0  0  0  0  0  0
  -11.1667   -2.0197    0.0000 H   0  0  0  0  0  0  0  0  0  0  0  0
  -13.2382    0.1503    0.0000 H   0  0  0  0  0  0  0  0  0  0  0  0
  1 42  1  0
  1 43  1  0
  1 44  1  0
  2  1  1  6
  2  3  1  0
  2  7  1  0
  2 10  1  0
  3  4  1  0
  3 45  1  0
  3 46  1  0
  4  5  1  0
  4 47  1  0
  4 48  1  0
  5  6  1  0
  5 15  1  0
  5 49  1  1
  6  7  1  0
  6 12  1  0
  6 50  1  6
  7  8  1  0
  7 51  1  1
  8  9  1  0
  8 52  1  0
  8 53  1  0
  9 10  1  0
  9 54  1  0
  9 55  1  0
 10 11  1  0
 10 56  1  1
 11 57  1  0
 12 13  1  0
 12 58  1  6
 12 21  1  0
 13 14  1  0
 13 59  1  0
 13 60  1  0
 14 15  2  0
 14 19  1  0
 15 16  1  0
 16 17  2  0
 16 61  1  0
 17 18  1  0
 17 62  1  0
 18 19  2  0
 18 20  1  0
 19 63  1  0
 20 64  1  0
 21 22  1  0
 21 65  1  0
 21 66  1  0
 22 23  1  0
 22 67  1  0
 22 68  1  0
 23 24  1  0
 23 69  1  0
 23 70  1  0
 24 25  1  0
 24 71  1  0
 24 72  1  0
 25 26  1  0
 25 73  1  0
 25 74  1  0
 26 27  1  0
 26 75  1  0
 26 76  1  0
 27 28  1  0
 27 77  1  0
 27 78  1  0
 28 29  1  0
 28 79  1  0
 28 80  1  0
 30 29  1  6
 29 81  1  0
 29 82  1  0
 30 31  2  0
 30 32  1  0
 32 33  1  0
 32 83  1  0
 32 84  1  0
 33 34  1  0
 33 85  1  0
 33 86  1  0
 34 35  1  0
 34 87  1  0
 34 88  1  0
 35 36  1  0
 35 40  1  0
 35 41  1  0
 36 37  1  0
 36 38  1  0
 36 39  1  0
M  END
$$$$

     RDKit          2D

 50 52  0  0  0  0  0  0  0  0999 V2000
   -0.7213    2.4382    0.0000 C   0  0  0  0  0  0  0  0  0  0  0  0
    0.6398    3.0687    0.0000 C   0  0  0  0  0  0  0  0  0  0  0  0
    1.8663    2.2052    0.0000 N   0  0  0  0  0  0  0  0  0  0  0  0
    1.7318    0.7112    0.0000 C   0  0  0  0  0  0  0  0  0  0  0  0
    0.3707    0.0808    0.0000 C   0  0  0  0  0  0  0  0  0  0  0  0
   -0.8558    0.9443    0.0000 N   0  0  0  0  0  0  0  0  0  0  0  0
   -2.2169    0.3138    0.0000 C   0  0  0  0  0  0  0  0  0  0  0  0
   -3.5780   -0.3166    0.0000 C   0  0  0  0  0  0  0  0  0  0  0  0
   -4.8045    0.5469    0.0000 C   0  0  0  0  0  0  0  0  0  0  0  0
   -6.1656   -0.0835    0.0000 C   0  0  0  0  0  0  0  0  0  0  0  0
   -6.3002   -1.5775    0.0000 C   0  0  0  0  0  0  0  0  0  0  0  0
   -5.0736   -2.4410    0.0000 C   0  0  0  0  0  0  0  0  0  0  0  0
   -3.7126   -1.8105    0.0000 C   0  0  0  0  0  0  0  0  0  0  0  0
   -7.7626   -1.9111    0.0000 O   0  0  0  0  0  0  0  0  0  0  0  0
   -8.5318   -0.6234    0.0000 C   0  0  0  0  0  0  0  0  0  0  0  0
   -7.5448    0.5061    0.0000 O   0  0  0  0  0  0  0  0  0  0  0  0
    3.2274    2.8356    0.0000 C   0  0  0  0  0  0  0  0  0  0  0  0
    3.3620    4.3295    0.0000 O   0  0  0  0  0  0  0  0  0  0  0  0
    4.4539    1.9721    0.0000 C   0  0  0  0  0  0  0  0  0  0  0  0
    5.6805    1.1086    0.0000 O   0  0  0  0  0  0  0  0  0  0  0  0
    5.5459   -0.3854    0.0000 C   0  0  0  0  0  0  0  0  0  0  0  0
    4.1848   -1.0158    0.0000 C   0  0  0  0  0  0  0  0  0  0  0  0
    4.0502   -2.5098    0.0000 C   0  0  0  0  0  0  0  0  0  0  0  0
    5.2768   -3.3733    0.0000 C   0  0  0  0  0  0  0  0  0  0  0  0
    6.6378   -2.7429    0.0000 C   0  0  0  0  0  0  0  0  0  0  0  0
    6.7724   -1.2489    0.0000 C   0  0  0  0  0  0  0  0  0  0  0  0
    5.1422   -4.8672    0.0000 Cl  0  0  0  0  0  0  0  0  0  0  0  0
   -0.7500    5.3295    0.0000 Cl  0  0  0  0  0  0  0  0  0  0  0  0
   -2.2202    2.4945    0.0000 H   0  0  0  0  0  0  0  0  0  0  0  0
   -1.1058    3.8881    0.0000 H   0  0  0  0  0  0  0  0  0  0  0  0
   -0.2174    4.2996    0.0000 H   0  0  0  0  0  0  0  0  0  0  0  0
    1.7032    4.1266    0.0000 H   0  0  0  0  0  0  0  0  0  0  0  0
    2.8245    0.6702    0.0000 H   0  0  0  0  0  0  0  0  0  0  0  0
    2.1163   -0.7387    0.0000 H   0  0  0  0  0  0  0  0  0  0  0  0
    1.2279   -1.1502    0.0000 H   0  0  0  0  0  0  0  0  0  0  0  0
   -0.5558   -1.0989    0.0000 H   0  0  0  0  0  0  0  0  0  0  0  0
   -3.0086    1.5879    0.0000 H   0  0  0  0  0  0  0  0  0  0  0  0
   -1.7571   -1.1139    0.0000 H   0  0  0  0  0  0  0  0  0  0  0  0
   -4.6699    2.0409    0.0000 H   0  0  0  0  0  0  0  0  0  0  0  0
   -5.2082   -3.9349    0.0000 H   0  0  0  0  0  0  0  0  0  0  0  0
   -2.4860   -2.6741    0.0000 H   0  0  0  0  0  0  0  0  0  0  0  0
   -9.7321   -1.5230    0.0000 H   0  0  0  0  0  0  0  0  0  0  0  0
   -9.5520    0.4763    0.0000 H   0  0  0  0  0  0  0  0  0  0  0  0
    3.8808    0.9007    0.0000 H   0  0  0  0  0  0  0  0  0  0  0  0
    5.3175    3.1986    0.0000 H   0  0  0  0  0  0  0  0  0  0  0  0
    3.0809   -0.2387    0.0000 H   0  0  0  0  0  0  0  0  0  0  0  0
    2.6892   -3.1402    0.0000 H   0  0  0  0  0  0  0  0  0  0  0  0
    7.8644   -3.6064    0.0000 H   0  0  0  0  0  0  0  0  0  0  0  0
    8.1335   -0.6185    0.0000 H   0  0  0  0  0  0  0  0  0  0  0  0
    0.7500    5.3295    0.0000 H   0  0  0  0  0  0  0  0  0  0  0  0
  1  2  1  0
  1  6  1  0
  1 29  1  0
  1 30  1  0
  2  3  1  0
  2 31  1  0
  2 32  1  0
  3  4  1  0
  3 17  1  0
  4  5  1  0
  4 33  1  0
  4 34  1  0
  5  6  1  0
  5 35  1  0
  5 36  1  0
  6  7  1  0
  7  8  1  0
  7 37  1  0
  7 38  1  0
  8  9  2  0
  8 13  1  0
  9 10  1  0
  9 39  1  0
 10 11  2  0
 10 16  1  0
 11 12  1  0
 11 14  1  0
 12 13  2  0
 12 40  1  0
 13 41  1  0
 14 15  1  0
 15 16  1  0
 15 42  1  0
 15 43  1  0
 17 18  2  0
 17 19  1  0
 19 20  1  0
 19 44  1  0
 19 45  1  0
 20 21  1  0
 21 22  2  0
 21 26  1  0
 22 23  1  0
 22 46  1  0
 23 24  2  0
 23 47  1  0
 24 25  1  0
 24 27  1  0
 25 26  2  0
 25 48  1  0
 26 49  1  0
 28 50  1  0
M  END
$$$$

     RDKit          2D

 31 32  0  0  0  0  0  0  0  0999 V2000
   -6.0932   -0.7243    0.0000 C   0  0  0  0  0  0  0  0  0  0  0  0
   -4.7267   -0.1058    0.0000 O   0  0  0  0  0  0  0  0  0  0  0  0
   -3.5077   -0.9800    0.0000 C   0  0  0  0  0  0  0  0  0  0  0  0
   -3.6554   -2.4727    0.0000 O   0  0  0  0  0  0  0  0  0  0  0  0
   -2.1412   -0.3615    0.0000 C   0  0  0  0  0  0  0  0  0  0  0  0
   -1.9936    1.1312    0.0000 C   0  0  0  0  0  0  0  0  0  0  0  0
   -0.6270    1.7497    0.0000 C   0  0  0  0  0  0  0  0  0  0  0  0
    0.5919    0.8755    0.0000 C   0  0  0  0  0  0  0  0  0  0  0  0
    0.4443   -0.6172    0.0000 C   0  0  0  0  0  0  0  0  0  0  0  0
   -0.9223   -1.2357    0.0000 C   0  0  0  0  0  0  0  0  0  0  0  0
    1.6632   -1.4914    0.0000 O   0  0  0  0  0  0  0  0  0  0  0  0
    3.0297   -0.8729    0.0000 C   0  0  0  0  0  0  0  0  0  0  0  0
    3.1774    0.6199    0.0000 C   0  0  0  0  0  0  0  0  0  0  0  0
    4.5439    1.2384    0.0000 C   0  0  0  0  0  0  0  0  0  0  0  0
    5.7628    0.3642    0.0000 C   0  0  0  0  0  0  0  0  0  0  0  0
    5.6152   -1.1285    0.0000 C   0  0  0  0  0  0  0  0  0  0  0  0
    4.2487   -1.7471    0.0000 C   0  0  0  0  0  0  0  0  0  0  0  0
    7.1294    0.9827    0.0000 Cl  0  0  0  0  0  0  0  0  0  0  0  0
    2.4535    1.2866    0.0000 Cl  0  0  0  0  0  0  0  0  0  0  0  0
   -3.2125    2.0054    0.0000 N   0  0  0  0  0  0  0  0  0  0  0  0
   -4.5790    1.3869    0.0000 O   0  0  0  0  0  0  0  0  0  0  0  0
   -3.0649    3.4981    0.0000 O   0  0  0  0  0  0  0  0  0  0  0  0
   -6.7117    0.6422    0.0000 H   0  0  0  0  0  0  0  0  0  0  0  0
   -5.4747   -2.0909    0.0000 H   0  0  0  0  0  0  0  0  0  0  0  0
   -7.4597   -1.3429    0.0000 H   0  0  0  0  0  0  0  0  0  0  0  0
   -0.4794    3.2424    0.0000 H   0  0  0  0  0  0  0  0  0  0  0  0
    1.4323    1.3876    0.0000 H   0  0  0  0  0  0  0  0  0  0  0  0
   -1.0699   -2.7284    0.0000 H   0  0  0  0  0  0  0  0  0  0  0  0
    4.6915    2.7311    0.0000 H   0  0  0  0  0  0  0  0  0  0  0  0
    6.8341   -2.0027    0.0000 H   0  0  0  0  0  0  0  0  0  0  0  0
    4.1010   -3.2398    0.0000 H   0  0  0  0  0  0  0  0  0  0  0  0
  1  2  1  0
  1 23  1  0
  1 24  1  0
  1 25  1  0
  2  3  1  0
  3  4  2  0
  3  5  1  0
  5  6  2  0
  5 10  1  0
  6  7  1  0
  6 20  1  0
  7  8  2  0
  7 26  1  0
  8  9  1  0
  8 27  1  0
  9 10  2  0
  9 11  1  0
 10 28  1  0
 11 12  1  0
 12 13  2  0
 12 17  1  0
 13 14  1  0
 13 19  1  0
 14 15  2  0
 14 29  1  0
 15 16  1  0
 15 18  1  0
 16 17  2  0
 16 30  1  0
 17 31  1  0
 20 21  2  0
 20 22  1  0
M  CHG  2  20   1  22  -1
M  END
$$$$

     RDKit          2D

 76 79  0  0  1  0  0  0  0  0999 V2000
    0.6132    3.1411    0.0000 C   0  0  0  0  0  0  0  0  0  0  0  0
   -0.8868    3.1357    0.0000 C   0  0  0  0  0  0  0  0  0  0  0  0
   -0.8923    4.6357    0.0000 C   0  0  0  0  0  0  0  0  0  0  0  0
   -0.8814    1.6357    0.0000 C   0  0  0  0  0  0  0  0  0  0  0  0
   -2.0917    0.7496    0.0000 C   0  0  0  0  0  0  0  0  0  0  0  0
   -1.6230   -0.6753    0.0000 C   0  0  0  0  0  0  0  0  0  0  0  0
   -0.1230   -0.6698    0.0000 C   0  0  0  0  0  0  0  0  0  0  0  0
    0.3353    0.7584    0.0000 N   0  0  0  0  0  0  0  0  0  0  0  0
    1.7602    1.2272    0.0000 C   0  0  0  0  0  0  0  0  0  0  0  0
    3.1851    1.6959    0.0000 C   0  0  0  0  0  0  0  0  0  0  0  0
    4.6100    2.1646    0.0000 C   0  0  0  0  0  0  0  0  0  0  0  0
    5.0787    0.7397    0.0000 C   0  0  0  0  0  0  0  0  0  0  0  0
    5.5474   -0.6852    0.0000 C   0  0  0  0  0  0  0  0  0  0  0  0
    6.9723   -0.2165    0.0000 C   0  0  0  0  0  0  0  0  0  0  0  0
    8.3972    0.2522    0.0000 C   0  0  0  0  0  0  0  0  0  0  0  0
    8.7037    1.7206    0.0000 O   0  0  0  0  0  0  0  0  0  0  0  0
    9.5156   -0.7474    0.0000 O   0  0  0  0  0  0  0  0  0  0  0  0
    4.1226   -1.1539    0.0000 O   0  0  0  0  0  0  0  0  0  0  0  0
    4.1413    3.5895    0.0000 O   0  0  0  0  0  0  0  0  0  0  0  0
    0.7631   -1.8801    0.0000 C   0  0  0  0  0  0  0  0  0  0  0  0
    2.2543   -1.7179    0.0000 C   0  0  0  0  0  0  0  0  0  0  0  0
    3.1404   -2.9282    0.0000 C   0  0  0  0  0  0  0  0  0  0  0  0
    2.5353   -4.3008    0.0000 C   0  0  0  0  0  0  0  0  0  0  0  0
    1.0441   -4.4630    0.0000 C   0  0  0  0  0  0  0  0  0  0  0  0
    0.1580   -3.2527    0.0000 C   0  0  0  0  0  0  0  0  0  0  0  0
    3.4214   -5.5111    0.0000 F   0  0  0  0  0  0  0  0  0  0  0  0
   -2.5002   -1.8920    0.0000 C   0  0  0  0  0  0  0  0  0  0  0  0
   -3.9926   -1.7406    0.0000 C   0  0  0  0  0  0  0  0  0  0  0  0
   -4.8698   -2.9574    0.0000 C   0  0  0  0  0  0  0  0  0  0  0  0
   -4.2547   -4.3255    0.0000 C   0  0  0  0  0  0  0  0  0  0  0  0
   -2.7624   -4.4768    0.0000 C   0  0  0  0  0  0  0  0  0  0  0  0
   -1.8851   -3.2601    0.0000 C   0  0  0  0  0  0  0  0  0  0  0  0
   -3.5199    1.2079    0.0000 C   0  0  0  0  0  0  0  0  0  0  0  0
   -3.8371    2.6740    0.0000 O   0  0  0  0  0  0  0  0  0  0  0  0
   -4.6310    0.2002    0.0000 N   0  0  0  0  0  0  0  0  0  0  0  0
   -6.0593    0.6585    0.0000 C   0  0  0  0  0  0  0  0  0  0  0  0
   -7.1703   -0.3492    0.0000 C   0  0  0  0  0  0  0  0  0  0  0  0
   -8.5986    0.1091    0.0000 C   0  0  0  0  0  0  0  0  0  0  0  0
   -8.9158    1.5752    0.0000 C   0  0  0  0  0  0  0  0  0  0  0  0
   -7.8047    2.5829    0.0000 C   0  0  0  0  0  0  0  0  0  0  0  0
   -6.3765    2.1246    0.0000 C   0  0  0  0  0  0  0  0  0  0  0  0
    0.6186    1.6412    0.0000 H   0  0  0  0  0  0  0  0  0  0  0  0
    0.7179    4.0207    0.0000 H   0  0  0  0  0  0  0  0  0  0  0  0
    1.9525    3.3106    0.0000 H   0  0  0  0  0  0  0  0  0  0  0  0
   -2.3868    3.1302    0.0000 H   0  0  0  0  0  0  0  0  0  0  0  0
   -0.0136    4.7468    0.0000 H   0  0  0  0  0  0  0  0  0  0  0  0
   -2.3923    4.6302    0.0000 H   0  0  0  0  0  0  0  0  0  0  0  0
   -0.8977    6.1357    0.0000 H   0  0  0  0  0  0  0  0  0  0  0  0
    1.2915    2.6520    0.0000 H   0  0  0  0  0  0  0  0  0  0  0  0
    2.3991   -0.1300    0.0000 H   0  0  0  0  0  0  0  0  0  0  0  0
    2.9228    3.0201    0.0000 H   0  0  0  0  0  0  0  0  0  0  0  0
    3.3573    0.8270    0.0000 H   0  0  0  0  0  0  0  0  0  0  0  0
    6.0349    2.6333    0.0000 H   0  0  0  0  0  0  0  0  0  0  0  0
    5.9691    1.1589    0.0000 H   0  0  0  0  0  0  0  0  0  0  0  0
    4.2774    0.3624    0.0000 H   0  0  0  0  0  0  0  0  0  0  0  0
    6.0162   -2.1101    0.0000 H   0  0  0  0  0  0  0  0  0  0  0  0
    6.7811    0.7489    0.0000 H   0  0  0  0  0  0  0  0  0  0  0  0
    7.4410   -1.6414    0.0000 H   0  0  0  0  0  0  0  0  0  0  0  0
   10.9405   -0.2787    0.0000 H   0  0  0  0  0  0  0  0  0  0  0  0
    4.3627   -2.6346    0.0000 H   0  0  0  0  0  0  0  0  0  0  0  0
    5.1409    4.7078    0.0000 H   0  0  0  0  0  0  0  0  0  0  0  0
    3.0222   -0.4294    0.0000 H   0  0  0  0  0  0  0  0  0  0  0  0
    4.6402   -2.9490    0.0000 H   0  0  0  0  0  0  0  0  0  0  0  0
    0.4390   -5.8355    0.0000 H   0  0  0  0  0  0  0  0  0  0  0  0
   -1.2496   -3.7709    0.0000 H   0  0  0  0  0  0  0  0  0  0  0  0
   -4.9204   -0.5620    0.0000 H   0  0  0  0  0  0  0  0  0  0  0  0
   -6.3622   -2.8060    0.0000 H   0  0  0  0  0  0  0  0  0  0  0  0
   -5.1320   -5.5422    0.0000 H   0  0  0  0  0  0  0  0  0  0  0  0
   -2.1473   -5.8449    0.0000 H   0  0  0  0  0  0  0  0  0  0  0  0
   -0.4738   -3.7681    0.0000 H   0  0  0  0  0  0  0  0  0  0  0  0
   -4.6780   -1.2991    0.0000 H   0  0  0  0  0  0  0  0  0  0  0  0
   -6.8531   -1.8153    0.0000 H   0  0  0  0  0  0  0  0  0  0  0  0
   -9.7096   -0.8986    0.0000 H   0  0  0  0  0  0  0  0  0  0  0  0
  -10.3441    2.0335    0.0000 H   0  0  0  0  0  0  0  0  0  0  0  0
   -8.1219    4.0490    0.0000 H   0  0  0  0  0  0  0  0  0  0  0  0
   -5.2654    3.1324    0.0000 H   0  0  0  0  0  0  0  0  0  0  0  0
  1  2  1  0
  1 42  1  0
  1 43  1  0
  1 44  1  0
  2  3  1  0
  2  4  1  0
  2 45  1  0
  3 46  1  0
  3 47  1  0
  3 48  1  0
  4  5  2  0
  4  8  1  0
  5  6  1  0
  5 33  1  0
  6  7  2  0
  6 27  1  0
  7  8  1  0
  7 20  1  0
  8  9  1  0
  9 10  1  0
  9 49  1  0
  9 50  1  0
 10 51  1  0
 10 52  1  0
 11 19  1  0
 11 53  1  6
 11 12  1  0
 11 10  1  0
 12 54  1  0
 12 55  1  0
 13 18  1  0
 13 56  1  1
 13 14  1  0
 13 12  1  0
 14 15  1  0
 14 57  1  0
 14 58  1  0
 15 16  2  0
 15 17  1  0
 17 59  1  0
 18 60  1  0
 19 61  1  0
 20 21  2  0
 20 25  1  0
 21 22  1  0
 21 62  1  0
 22 23  2  0
 22 63  1  0
 23 24  1  0
 23 26  1  0
 24 25  2  0
 24 64  1  0
 25 65  1  0
 27 28  2  0
 27 32  1  0
 28 29  1  0
 28 66  1  0
 29 30  2  0
 29 67  1  0
 30 31  1  0
 30 68  1  0
 31 32  2  0
 31 69  1  0
 32 70  1  0
 33 34  2  0
 33 35  1  0
 35 36  1  0
 35 71  1  0
 36 37  2  0
 36 41  1  0
 37 38  1  0
 37 72  1  0
 38 39  2  0
 38 73  1  0
 39 40  1  0
 39 74  1  0
 40 41  2  0
 40 75  1  0
 41 76  1  0
M  END
$$$$

     RDKit          2D

151156  0  0  1  0  0  0  0  0999 V2000
    0.8090   -2.7984    0.0000 C   0  0  0  0  0  0  0  0  0  0  0  0
   -0.5797   -2.2315    0.0000 C   0  0  0  0  0  0  0  0  0  0  0  0
   -1.1467   -3.6202    0.0000 C   0  0  0  0  0  0  0  0  0  0  0  0
   -0.0127   -0.8428    0.0000 C   0  0  0  0  0  0  0  0  0  0  0  0
    1.4440   -0.4852    0.0000 C   0  0  0  0  0  0  0  0  0  0  0  0
    1.5541    1.0108    0.0000 C   0  0  0  0  0  0  0  0  0  0  0  0
    0.1654    1.5778    0.0000 C   0  0  0  0  0  0  0  0  0  0  0  0
   -0.8030    0.4322    0.0000 N   0  0  0  0  0  0  0  0  0  0  0  0
   -2.2989    0.5423    0.0000 C   0  0  0  0  0  0  0  0  0  0  0  0
   -3.7949    0.6524    0.0000 C   0  0  0  0  0  0  0  0  0  0  0  0
   -5.2909    0.7624    0.0000 C   0  0  0  0  0  0  0  0  0  0  0  0
   -5.4009   -0.7335    0.0000 C   0  0  0  0  0  0  0  0  0  0  0  0
   -5.5110   -2.2295    0.0000 C   0  0  0  0  0  0  0  0  0  0  0  0
   -7.0070   -2.1194    0.0000 C   0  0  0  0  0  0  0  0  0  0  0  0
   -8.5029   -2.0093    0.0000 C   0  0  0  0  0  0  0  0  0  0  0  0
   -9.1556   -0.6587    0.0000 O   0  0  0  0  0  0  0  0  0  0  0  0
   -9.3462   -3.2498    0.0000 O   0  0  0  0  0  0  0  0  0  0  0  0
   -4.0151   -2.3395    0.0000 O   0  0  0  0  0  0  0  0  0  0  0  0
   -5.1808    2.2584    0.0000 O   0  0  0  0  0  0  0  0  0  0  0  0
   -0.1922    3.0345    0.0000 C   0  0  0  0  0  0  0  0  0  0  0  0
   -1.6326    3.4532    0.0000 C   0  0  0  0  0  0  0  0  0  0  0  0
   -1.9902    4.9100    0.0000 C   0  0  0  0  0  0  0  0  0  0  0  0
   -0.9074    5.9480    0.0000 C   0  0  0  0  0  0  0  0  0  0  0  0
    0.5330    5.5293    0.0000 C   0  0  0  0  0  0  0  0  0  0  0  0
    0.8906    4.0726    0.0000 C   0  0  0  0  0  0  0  0  0  0  0  0
   -1.2650    7.4048    0.0000 F   0  0  0  0  0  0  0  0  0  0  0  0
    2.8290    1.8010    0.0000 C   0  0  0  0  0  0  0  0  0  0  0  0
    4.1509    1.0920    0.0000 C   0  0  0  0  0  0  0  0  0  0  0  0
    5.4259    1.8822    0.0000 C   0  0  0  0  0  0  0  0  0  0  0  0
    5.3790    3.3815    0.0000 C   0  0  0  0  0  0  0  0  0  0  0  0
    4.0571    4.0905    0.0000 C   0  0  0  0  0  0  0  0  0  0  0  0
    2.7822    3.3003    0.0000 C   0  0  0  0  0  0  0  0  0  0  0  0
    2.5896   -1.4535    0.0000 C   0  0  0  0  0  0  0  0  0  0  0  0
    2.5216   -2.6666    0.0000 O   0  0  0  0  0  0  0  0  0  0  0  0
    4.0010   -0.9456    0.0000 N   0  0  0  0  0  0  0  0  0  0  0  0
    5.1465   -1.9140    0.0000 C   0  0  0  0  0  0  0  0  0  0  0  0
    6.5579   -1.4061    0.0000 C   0  0  0  0  0  0  0  0  0  0  0  0
    7.7035   -2.3745    0.0000 C   0  0  0  0  0  0  0  0  0  0  0  0
    7.4376   -3.8507    0.0000 C   0  0  0  0  0  0  0  0  0  0  0  0
    6.0262   -4.3586    0.0000 C   0  0  0  0  0  0  0  0  0  0  0  0
    4.8807   -3.3902    0.0000 C   0  0  0  0  0  0  0  0  0  0  0  0
    0.8090   11.4412    0.0000 C   0  0  0  0  0  0  0  0  0  0  0  0
   -0.5797   12.0082    0.0000 C   0  0  0  0  0  0  0  0  0  0  0  0
   -1.1467   10.6194    0.0000 C   0  0  0  0  0  0  0  0  0  0  0  0
   -0.0127   13.3969    0.0000 C   0  0  0  0  0  0  0  0  0  0  0  0
    1.4440   13.7545    0.0000 C   0  0  0  0  0  0  0  0  0  0  0  0
    1.5541   15.2504    0.0000 C   0  0  0  0  0  0  0  0  0  0  0  0
    0.1654   15.8174    0.0000 C   0  0  0  0  0  0  0  0  0  0  0  0
   -0.8030   14.6718    0.0000 N   0  0  0  0  0  0  0  0  0  0  0  0
   -2.2989   14.7819    0.0000 C   0  0  0  0  0  0  0  0  0  0  0  0
   -3.7949   14.8920    0.0000 C   0  0  0  0  0  0  0  0  0  0  0  0
   -5.2909   15.0021    0.0000 C   0  0  0  0  0  0  0  0  0  0  0  0
   -5.4009   13.5061    0.0000 C   0  0  0  0  0  0  0  0  0  0  0  0
   -5.5110   12.0102    0.0000 C   0  0  0  0  0  0  0  0  0  0  0  0
   -7.0070   12.1202    0.0000 C   0  0  0  0  0  0  0  0  0  0  0  0
   -8.5029   12.2303    0.0000 C   0  0  0  0  0  0  0  0  0  0  0  0
   -9.1556   13.5809    0.0000 O   0  0  0  0  0  0  0  0  0  0  0  0
   -9.3462   10.9898    0.0000 O   0  0  0  0  0  0  0  0  0  0  0  0
   -4.0151   11.9001    0.0000 O   0  0  0  0  0  0  0  0  0  0  0  0
   -5.1808   16.4980    0.0000 O   0  0  0  0  0  0  0  0  0  0  0  0
   -0.1922   17.2741    0.0000 C   0  0  0  0  0  0  0  0  0  0  0  0
   -1.6326   17.6928    0.0000 C   0  0  0  0  0  0  0  0  0  0  0  0
   -1.9902   19.1496    0.0000 C   0  0  0  0  0  0  0  0  0  0  0  0
   -0.9074   20.1876    0.0000 C   0  0  0  0  0  0  0  0  0  0  0  0
    0.5330   19.7689    0.0000 C   0  0  0  0  0  0  0  0  0  0  0  0
    0.8906   18.3122    0.0000 C   0  0  0  0  0  0  0  0  0  0  0  0
   -1.2650   21.6444    0.0000 F   0  0  0  0  0  0  0  0  0  0  0  0
    2.8290   16.0407    0.0000 C   0  0  0  0  0  0  0  0  0  0  0  0
    4.1509   15.3316    0.0000 C   0  0  0  0  0  0  0  0  0  0  0  0
    5.4259   16.1219    0.0000 C   0  0  0  0  0  0  0  0  0  0  0  0
    5.3790   17.6211    0.0000 C   0  0  0  0  0  0  0  0  0  0  0  0
    4.0571   18.3302    0.0000 C   0  0  0  0  0  0  0  0  0  0  0  0
    2.7822   17.5399    0.0000 C   0  0  0  0  0  0  0  0  0  0  0  0
    2.5896   12.7861    0.0000 C   0  0  0  0  0  0  0  0  0  0  0  0
    2.5216   11.5730    0.0000 O   0  0  0  0  0  0  0  0  0  0  0  0
    4.0010   13.2940    0.0000 N   0  0  0  0  0  0  0  0  0  0  0  0
    5.1465   12.3256    0.0000 C   0  0  0  0  0  0  0  0  0  0  0  0
    6.5579   12.8335    0.0000 C   0  0  0  0  0  0  0  0  0  0  0  0
    7.7035   11.8652    0.0000 C   0  0  0  0  0  0  0  0  0  0  0  0
    7.4376   10.3889    0.0000 C   0  0  0  0  0  0  0  0  0  0  0  0
    6.0262    9.8810    0.0000 C   0  0  0  0  0  0  0  0  0  0  0  0
    4.8807   10.8494    0.0000 C   0  0  0  0  0  0  0  0  0  0  0  0
   10.1148    0.0000    0.0000 Ca  0  0  0  0  0 15  0  0  0  0  0  0
    1.3760   -1.4097    0.0000 H   0  0  0  0  0  0  0  0  0  0  0  0
    0.5767   -3.6532    0.0000 H   0  0  0  0  0  0  0  0  0  0  0  0
    1.8695   -3.3914    0.0000 H   0  0  0  0  0  0  0  0  0  0  0  0
   -2.0272   -1.8380    0.0000 H   0  0  0  0  0  0  0  0  0  0  0  0
   -0.3736   -4.0524    0.0000 H   0  0  0  0  0  0  0  0  0  0  0  0
   -2.5354   -3.0532    0.0000 H   0  0  0  0  0  0  0  0  0  0  0  0
   -1.7137   -5.0089    0.0000 H   0  0  0  0  0  0  0  0  0  0  0  0
   -2.3720    2.0405    0.0000 H   0  0  0  0  0  0  0  0  0  0  0  0
   -2.5906   -0.9291    0.0000 H   0  0  0  0  0  0  0  0  0  0  0  0
   -3.6848    2.1483    0.0000 H   0  0  0  0  0  0  0  0  0  0  0  0
   -3.7517   -0.2323    0.0000 H   0  0  0  0  0  0  0  0  0  0  0  0
   -6.7868    0.8725    0.0000 H   0  0  0  0  0  0  0  0  0  0  0  0
   -4.5321   -0.9057    0.0000 H   0  0  0  0  0  0  0  0  0  0  0  0
   -6.4736   -0.5209    0.0000 H   0  0  0  0  0  0  0  0  0  0  0  0
   -5.6211   -3.7254    0.0000 H   0  0  0  0  0  0  0  0  0  0  0  0
   -7.0603   -1.0272    0.0000 H   0  0  0  0  0  0  0  0  0  0  0  0
   -7.1171   -3.6153    0.0000 H   0  0  0  0  0  0  0  0  0  0  0  0
   -3.3624   -3.6901    0.0000 H   0  0  0  0  0  0  0  0  0  0  0  0
   -6.4213    3.1017    0.0000 H   0  0  0  0  0  0  0  0  0  0  0  0
   -2.8338    2.5549    0.0000 H   0  0  0  0  0  0  0  0  0  0  0  0
   -3.4306    5.3287    0.0000 H   0  0  0  0  0  0  0  0  0  0  0  0
    1.6158    6.5674    0.0000 H   0  0  0  0  0  0  0  0  0  0  0  0
    2.3895    4.0148    0.0000 H   0  0  0  0  0  0  0  0  0  0  0  0
    4.5592   -0.3514    0.0000 H   0  0  0  0  0  0  0  0  0  0  0  0
    6.7477    1.1732    0.0000 H   0  0  0  0  0  0  0  0  0  0  0  0
    6.6539    4.1718    0.0000 H   0  0  0  0  0  0  0  0  0  0  0  0
    4.0102    5.5898    0.0000 H   0  0  0  0  0  0  0  0  0  0  0  0
    1.6712    4.3081    0.0000 H   0  0  0  0  0  0  0  0  0  0  0  0
    4.6161    0.4224    0.0000 H   0  0  0  0  0  0  0  0  0  0  0  0
    6.8237    0.0702    0.0000 H   0  0  0  0  0  0  0  0  0  0  0  0
    9.1148   -1.8666    0.0000 H   0  0  0  0  0  0  0  0  0  0  0  0
    8.5832   -4.8191    0.0000 H   0  0  0  0  0  0  0  0  0  0  0  0
    5.7604   -5.8349    0.0000 H   0  0  0  0  0  0  0  0  0  0  0  0
    3.4693   -3.8981    0.0000 H   0  0  0  0  0  0  0  0  0  0  0  0
    1.3760   12.8299    0.0000 H   0  0  0  0  0  0  0  0  0  0  0  0
    0.5767   10.5865    0.0000 H   0  0  0  0  0  0  0  0  0  0  0  0
    1.8695   10.8483    0.0000 H   0  0  0  0  0  0  0  0  0  0  0  0
   -2.0272   12.4016    0.0000 H   0  0  0  0  0  0  0  0  0  0  0  0
   -0.3736   10.1872    0.0000 H   0  0  0  0  0  0  0  0  0  0  0  0
   -2.5354   11.1864    0.0000 H   0  0  0  0  0  0  0  0  0  0  0  0
   -1.7137    9.2307    0.0000 H   0  0  0  0  0  0  0  0  0  0  0  0
   -2.3720   16.2801    0.0000 H   0  0  0  0  0  0  0  0  0  0  0  0
   -2.5906   13.3105    0.0000 H   0  0  0  0  0  0  0  0  0  0  0  0
   -3.6848   16.3880    0.0000 H   0  0  0  0  0  0  0  0  0  0  0  0
   -3.7517   14.0073    0.0000 H   0  0  0  0  0  0  0  0  0  0  0  0
   -6.7868   15.1122    0.0000 H   0  0  0  0  0  0  0  0  0  0  0  0
   -4.5321   13.3339    0.0000 H   0  0  0  0  0  0  0  0  0  0  0  0
   -6.4736   13.7187    0.0000 H   0  0  0  0  0  0  0  0  0  0  0  0
   -5.6211   10.5142    0.0000 H   0  0  0  0  0  0  0  0  0  0  0  0
   -7.0603   13.2125    0.0000 H   0  0  0  0  0  0  0  0  0  0  0  0
   -7.1171   10.6243    0.0000 H   0  0  0  0  0  0  0  0  0  0  0  0
   -3.3624   10.5495    0.0000 H   0  0  0  0  0  0  0  0  0  0  0  0
   -6.4213   17.3413    0.0000 H   0  0  0  0  0  0  0  0  0  0  0  0
   -2.8338   16.7945    0.0000 H   0  0  0  0  0  0  0  0  0  0  0  0
   -3.4306   19.5683    0.0000 H   0  0  0  0  0  0  0  0  0  0  0  0
    1.6158   20.8070    0.0000 H   0  0  0  0  0  0  0  0  0  0  0  0
    2.3895   18.2545    0.0000 H   0  0  0  0  0  0  0  0  0  0  0  0
    4.5592   13.8883    0.0000 H   0  0  0  0  0  0  0  0  0  0  0  0
    6.7477   15.4129    0.0000 H   0  0  0  0  0  0  0  0  0  0  0  0
    6.6539   18.4114    0.0000 H   0  0  0  0  0  0  0  0  0  0  0  0
    4.0102   19.8294    0.0000 H   0  0  0  0  0  0  0  0  0  0  0  0
    1.6712   18.5477    0.0000 H   0  0  0  0  0  0  0  0  0  0  0  0
    4.6161   14.6621    0.0000 H   0  0  0  0  0  0  0  0  0  0  0  0
    6.8237   14.3098    0.0000 H   0  0  0  0  0  0  0  0  0  0  0  0
    9.1148   12.3731    0.0000 H   0  0  0  0  0  0  0  0  0  0  0  0
    8.5832    9.4206    0.0000 H   0  0  0  0  0  0  0  0  0  0  0  0
    5.7604    8.4048    0.0000 H   0  0  0  0  0  0  0  0  0  0  0  0
    3.4693   10.3415    0.0000 H   0  0  0  0  0  0  0  0  0  0  0  0
  1  2  1  0
  1 84  1  0
  1 85  1  0
  1 86  1  0
  2  3  1  0
  2  4  1  0
  2 87  1  0
  3 88  1  0
  3 89  1  0
  3 90  1  0
  4  5  2  0
  4  8  1  0
  5  6  1  0
  5 33  1  0
  6  7  2  0
  6 27  1  0
  7  8  1  0
  7 20  1  0
  8  9  1  0
  9 10  1  0
  9 91  1  0
  9 92  1  0
 10 93  1  0
 10 94  1  0
 11 19  1  0
 11 95  1  1
 11 12  1  0
 11 10  1  0
 12 96  1  0
 12 97  1  0
 13 18  1  0
 13 98  1  6
 13 14  1  0
 13 12  1  0
 14 15  1  0
 14 99  1  0
 14100  1  0
 15 16  2  0
 15 17  1  0
 18101  1  0
 19102  1  0
 20 21  2  0
 20 25  1  0
 21 22  1  0
 21103  1  0
 22 23  2  0
 22104  1  0
 23 24  1  0
 23 26  1  0
 24 25  2  0
 24105  1  0
 25106  1  0
 27 28  2  0
 27 32  1  0
 28 29  1  0
 28107  1  0
 29 30  2  0
 29108  1  0
 30 31  1  0
 30109  1  0
 31 32  2  0
 31110  1  0
 32111  1  0
 33 34  2  0
 33 35  1  0
 35 36  1  0
 35112  1  0
 36 37  2  0
 36 41  1  0
 37 38  1  0
 37113  1  0
 38 39  2  0
 38114  1  0
 39 40  1  0
 39115  1  0
 40 41  2  0
 40116  1  0
 41117  1  0
 42 43  1  0
 42118  1  0
 42119  1  0
 42120  1  0
 43 44  1  0
 43 45  1  0
 43121  1  0
 44122  1  0
 44123  1  0
 44124  1  0
 45 46  2  0
 45 49  1  0
 46 47  1  0
 46 74  1  0
 47 48  2  0
 47 68  1  0
 48 49  1  0
 48 61  1  0
 49 50  1  0
 50 51  1  0
 50125  1  0
 50126  1  0
 51127  1  0
 51128  1  0
 52 60  1  0
 52129  1  1
 52 53  1  0
 52 51  1  0
 53130  1  0
 53131  1  0
 54 59  1  0
 54132  1  6
 54 55  1  0
 54 53  1  0
 55 56  1  0
 55133  1  0
 55134  1  0
 56 57  2  0
 56 58  1  0
 59135  1  0
 60136  1  0
 61 62  2  0
 61 66  1  0
 62 63  1  0
 62137  1  0
 63 64  2  0
 63138  1  0
 64 65  1  0
 64 67  1  0
 65 66  2  0
 65139  1  0
 66140  1  0
 68 69  2  0
 68 73  1  0
 69 70  1  0
 69141  1  0
 70 71  2  0
 70142  1  0
 71 72  1  0
 71143  1  0
 72 73  2  0
 72144  1  0
 73145  1  0
 74 75  2  0
 74 76  1  0
 76 77  1  0
 76146  1  0
 77 78  2  0
 77 82  1  0
 78 79  1  0
 78147  1  0
 79 80  2  0
 79148  1  0
 80 81  1  0
 80149  1  0
 81 82  2  0
 81150  1  0
 82151  1  0
M  CHG  3  17  -1  58  -1  83   2
M  END
$$$$

     RDKit          2D

 49 50  0  0  0  0  0  0  0  0999 V2000
    6.4841    0.6639    0.0000 C   0  0  0  0  0  0  0  0  0  0  0  0
    5.8291   -0.6855    0.0000 C   0  0  0  0  0  0  0  0  0  0  0  0
    5.1740   -2.0348    0.0000 C   0  0  0  0  0  0  0  0  0  0  0  0
    7.1784   -1.3405    0.0000 C   0  0  0  0  0  0  0  0  0  0  0  0
    4.4797   -0.0304    0.0000 C   0  0  0  0  0  0  0  0  0  0  0  0
    3.2376   -0.8714    0.0000 C   0  0  0  0  0  0  0  0  0  0  0  0
    1.8882   -0.2163    0.0000 C   0  0  0  0  0  0  0  0  0  0  0  0
    1.7809    1.2798    0.0000 C   0  0  0  0  0  0  0  0  0  0  0  0
    3.0229    2.1209    0.0000 C   0  0  0  0  0  0  0  0  0  0  0  0
    4.3723    1.4658    0.0000 C   0  0  0  0  0  0  0  0  0  0  0  0
    0.4315    1.9349    0.0000 C   0  0  0  0  0  0  0  0  0  0  0  0
   -0.9179    2.5900    0.0000 S   0  0  0  0  0  0  0  0  0  0  0  0
   -2.1599    1.7489    0.0000 C   0  0  0  0  0  0  0  0  0  0  0  0
   -3.5093    2.4040    0.0000 C   0  0  0  0  0  0  0  0  0  0  0  0
   -4.7513    1.5629    0.0000 C   0  0  0  0  0  0  0  0  0  0  0  0
   -6.1007    2.2180    0.0000 O   0  0  0  0  0  0  0  0  0  0  0  0
   -4.6440    0.0668    0.0000 N   0  0  0  0  0  0  0  0  0  0  0  0
   -3.2946   -0.5883    0.0000 N   0  0  0  0  0  0  0  0  0  0  0  0
   -2.0526    0.2528    0.0000 C   0  0  0  0  0  0  0  0  0  0  0  0
   -5.8860   -0.7743    0.0000 C   0  0  0  0  0  0  0  0  0  0  0  0
   -5.0449   -2.0163    0.0000 C   0  0  0  0  0  0  0  0  0  0  0  0
   -6.7271    0.4677    0.0000 C   0  0  0  0  0  0  0  0  0  0  0  0
   -7.1280   -1.6154    0.0000 C   0  0  0  0  0  0  0  0  0  0  0  0
   -3.6167    3.9001    0.0000 Cl  0  0  0  0  0  0  0  0  0  0  0  0
    7.3222    0.3771    0.0000 H   0  0  0  0  0  0  0  0  0  0  0  0
    5.3334    1.6261    0.0000 H   0  0  0  0  0  0  0  0  0  0  0  0
    7.1392    2.0133    0.0000 H   0  0  0  0  0  0  0  0  0  0  0  0
    5.9177   -2.5159    0.0000 H   0  0  0  0  0  0  0  0  0  0  0  0
    4.3072   -1.8523    0.0000 H   0  0  0  0  0  0  0  0  0  0  0  0
    4.5189   -3.3842    0.0000 H   0  0  0  0  0  0  0  0  0  0  0  0
    6.8916   -2.1786    0.0000 H   0  0  0  0  0  0  0  0  0  0  0  0
    7.6595   -0.5968    0.0000 H   0  0  0  0  0  0  0  0  0  0  0  0
    8.5278   -1.9956    0.0000 H   0  0  0  0  0  0  0  0  0  0  0  0
    3.3010   -1.7549    0.0000 H   0  0  0  0  0  0  0  0  0  0  0  0
    0.6462   -1.0574    0.0000 H   0  0  0  0  0  0  0  0  0  0  0  0
    2.9155    3.6170    0.0000 H   0  0  0  0  0  0  0  0  0  0  0  0
    5.6143    2.3069    0.0000 H   0  0  0  0  0  0  0  0  0  0  0  0
   -0.2236    0.5855    0.0000 H   0  0  0  0  0  0  0  0  0  0  0  0
    1.0866    3.2843    0.0000 H   0  0  0  0  0  0  0  0  0  0  0  0
   -0.7032   -0.4023    0.0000 H   0  0  0  0  0  0  0  0  0  0  0  0
   -6.1752   -3.0025    0.0000 H   0  0  0  0  0  0  0  0  0  0  0  0
   -3.6363   -1.5008    0.0000 H   0  0  0  0  0  0  0  0  0  0  0  0
   -4.2039   -3.2583    0.0000 H   0  0  0  0  0  0  0  0  0  0  0  0
   -8.0623   -0.2157    0.0000 H   0  0  0  0  0  0  0  0  0  0  0  0
   -5.7255    1.5843    0.0000 H   0  0  0  0  0  0  0  0  0  0  0  0
   -7.5681    1.7097    0.0000 H   0  0  0  0  0  0  0  0  0  0  0  0
   -8.1142   -0.4851    0.0000 H   0  0  0  0  0  0  0  0  0  0  0  0
   -6.4446   -2.9506    0.0000 H   0  0  0  0  0  0  0  0  0  0  0  0
   -8.3700   -2.4564    0.0000 H   0  0  0  0  0  0  0  0  0  0  0  0
  1  2  1  0
  1 25  1  0
  1 26  1  0
  1 27  1  0
  2  3  1  0
  2  4  1  0
  2  5  1  0
  3 28  1  0
  3 29  1  0
  3 30  1  0
  4 31  1  0
  4 32  1  0
  4 33  1  0
  5  6  2  0
  5 10  1  0
  6  7  1  0
  6 34  1  0
  7  8  2  0
  7 35  1  0
  8  9  1  0
  8 11  1  0
  9 10  2  0
  9 36  1  0
 10 37  1  0
 11 12  1  0
 11 38  1  0
 11 39  1  0
 12 13  1  0
 13 14  2  0
 13 19  1  0
 14 15  1  0
 14 24  1  0
 15 16  2  0
 15 17  1  0
 17 18  1  0
 17 20  1  0
 18 19  2  0
 19 40  1  0
 20 21  1  0
 20 22  1  0
 20 23  1  0
 21 41  1  0
 21 42  1  0
 21 43  1  0
 22 44  1  0
 22 45  1  0
 22 46  1  0
 23 47  1  0
 23 48  1  0
 23 49  1  0
M  END
$$$$

     RDKit          2D

 45 47  0  0  0  0  0  0  0  0999 V2000
    3.7201   -2.0821    0.0000 C   0  0  0  0  0  0  0  0  0  0  0  0
    2.2375   -1.8544    0.0000 C   0  0  0  0  0  0  0  0  0  0  0  0
    2.0098   -3.3370    0.0000 C   0  0  0  0  0  0  0  0  0  0  0  0
    2.4652   -0.3717    0.0000 C   0  0  0  0  0  0  0  0  0  0  0  0
    1.2951    0.5668    0.0000 C   0  0  0  0  0  0  0  0  0  0  0  0
    1.5228    2.0494    0.0000 C   0  0  0  0  0  0  0  0  0  0  0  0
    2.9206    2.5935    0.0000 C   0  0  0  0  0  0  0  0  0  0  0  0
    4.0908    1.6550    0.0000 C   0  0  0  0  0  0  0  0  0  0  0  0
    3.8631    0.1724    0.0000 C   0  0  0  0  0  0  0  0  0  0  0  0
    0.3527    2.9879    0.0000 C   0  0  0  0  0  0  0  0  0  0  0  0
   -0.5858    1.8178    0.0000 C   0  0  0  0  0  0  0  0  0  0  0  0
   -0.8174    3.9264    0.0000 C   0  0  0  0  0  0  0  0  0  0  0  0
   -0.1028    0.0227    0.0000 N   0  0  0  0  0  0  0  0  0  0  0  0
   -0.4842   -1.4280    0.0000 C   0  0  0  0  0  0  0  0  0  0  0  0
    0.1644   -2.4554    0.0000 O   0  0  0  0  0  0  0  0  0  0  0  0
   -1.9818   -1.5135    0.0000 C   0  0  0  0  0  0  0  0  0  0  0  0
   -2.5259   -0.1157    0.0000 C   0  0  0  0  0  0  0  0  0  0  0  0
   -1.3646    0.8337    0.0000 C   0  0  0  0  0  0  0  0  0  0  0  0
   -1.6892    1.8779    0.0000 O   0  0  0  0  0  0  0  0  0  0  0  0
   -4.0085    0.1120    0.0000 C   0  0  0  0  0  0  0  0  0  0  0  0
   -4.9470   -1.0581    0.0000 C   0  0  0  0  0  0  0  0  0  0  0  0
   -4.4029   -2.4559    0.0000 C   0  0  0  0  0  0  0  0  0  0  0  0
   -2.9203   -2.6836    0.0000 C   0  0  0  0  0  0  0  0  0  0  0  0
   -6.4296   -0.8304    0.0000 O   0  0  0  0  0  0  0  0  0  0  0  0
    3.6934   -2.9674    0.0000 H   0  0  0  0  0  0  0  0  0  0  0  0
    4.0624   -1.2652    0.0000 H   0  0  0  0  0  0  0  0  0  0  0  0
    5.2027   -2.3098    0.0000 H   0  0  0  0  0  0  0  0  0  0  0  0
    0.7549   -1.6266    0.0000 H   0  0  0  0  0  0  0  0  0  0  0  0
    0.7953   -3.3003    0.0000 H   0  0  0  0  0  0  0  0  0  0  0  0
    2.8623   -3.5771    0.0000 H   0  0  0  0  0  0  0  0  0  0  0  0
    1.7821   -4.8196    0.0000 H   0  0  0  0  0  0  0  0  0  0  0  0
    3.1484    4.0761    0.0000 H   0  0  0  0  0  0  0  0  0  0  0  0
    5.4886    2.1991    0.0000 H   0  0  0  0  0  0  0  0  0  0  0  0
    4.5540   -0.3818    0.0000 H   0  0  0  0  0  0  0  0  0  0  0  0
    1.2912    4.1580    0.0000 H   0  0  0  0  0  0  0  0  0  0  0  0
   -1.4389    2.5020    0.0000 H   0  0  0  0  0  0  0  0  0  0  0  0
    0.3224    0.6240    0.0000 H   0  0  0  0  0  0  0  0  0  0  0  0
   -1.7796    0.9095    0.0000 H   0  0  0  0  0  0  0  0  0  0  0  0
    0.1211    5.0965    0.0000 H   0  0  0  0  0  0  0  0  0  0  0  0
   -2.0112    3.0182    0.0000 H   0  0  0  0  0  0  0  0  0  0  0  0
   -1.9876    4.8649    0.0000 H   0  0  0  0  0  0  0  0  0  0  0  0
   -4.5526    1.5099    0.0000 H   0  0  0  0  0  0  0  0  0  0  0  0
   -5.3414   -3.6261    0.0000 H   0  0  0  0  0  0  0  0  0  0  0  0
   -2.3762   -4.0815    0.0000 H   0  0  0  0  0  0  0  0  0  0  0  0
   -6.9737    0.5675    0.0000 H   0  0  0  0  0  0  0  0  0  0  0  0
  1  2  1  0
  1 25  1  0
  1 26  1  0
  1 27  1  0
  2  3  1  0
  2  4  1  0
  2 28  1  0
  3 29  1  0
  3 30  1  0
  3 31  1  0
  4  5  2  0
  4  9  1  0
  5  6  1  0
  5 13  1  0
  6  7  2  0
  6 10  1  0
  7  8  1  0
  7 32  1  0
  8  9  2  0
  8 33  1  0
  9 34  1  0
 10 11  1  0
 10 12  1  0
 10 35  1  0
 11 36  1  0
 11 37  1  0
 11 38  1  0
 12 39  1  0
 12 40  1  0
 12 41  1  0
 13 14  1  0
 13 18  1  0
 14 15  2  0
 14 16  1  0
 16 17  2  0
 16 23  1  0
 17 18  1  0
 17 20  1  0
 18 19  2  0
 20 21  2  0
 20 42  1  0
 21 22  1  0
 21 24  1  0
 22 23  2  0
 22 43  1  0
 23 44  1  0
 24 45  1  0
M  END
$$$$

     RDKit          2D

 28 28  0  0  0  0  0  0  0  0999 V2000
   -4.4953   -0.4197    0.0000 C   0  0  0  0  0  0  0  0  0  0  0  0
   -3.2663   -1.2797    0.0000 O   0  0  0  0  0  0  0  0  0  0  0  0
   -1.9070   -0.6454    0.0000 P   0  0  0  0  0  0  0  0  0  0  0  0
   -2.0374   -2.1397    0.0000 O   0  0  0  0  0  0  0  0  0  0  0  0
   -3.1360    0.2146    0.0000 O   0  0  0  0  0  0  0  0  0  0  0  0
   -3.0057    1.7090    0.0000 C   0  0  0  0  0  0  0  0  0  0  0  0
   -0.5477   -0.0111    0.0000 O   0  0  0  0  0  0  0  0  0  0  0  0
    0.6812   -0.8712    0.0000 C   0  0  0  0  0  0  0  0  0  0  0  0
    0.5509   -2.3655    0.0000 C   0  0  0  0  0  0  0  0  0  0  0  0
   -0.8084   -2.9998    0.0000 Cl  0  0  0  0  0  0  0  0  0  0  0  0
    2.0405   -0.2369    0.0000 C   0  0  0  0  0  0  0  0  0  0  0  0
    2.1708    1.2575    0.0000 C   0  0  0  0  0  0  0  0  0  0  0  0
    3.5301    1.8917    0.0000 C   0  0  0  0  0  0  0  0  0  0  0  0
    4.7591    1.0317    0.0000 C   0  0  0  0  0  0  0  0  0  0  0  0
    4.6288   -0.4626    0.0000 C   0  0  0  0  0  0  0  0  0  0  0  0
    3.2695   -1.0969    0.0000 C   0  0  0  0  0  0  0  0  0  0  0  0
    3.1391   -2.5912    0.0000 Cl  0  0  0  0  0  0  0  0  0  0  0  0
    6.1184    1.6660    0.0000 Cl  0  0  0  0  0  0  0  0  0  0  0  0
    3.6605    3.3861    0.0000 Cl  0  0  0  0  0  0  0  0  0  0  0  0
   -3.9582    0.9809    0.0000 H   0  0  0  0  0  0  0  0  0  0  0  0
   -5.3553   -1.6486    0.0000 H   0  0  0  0  0  0  0  0  0  0  0  0
   -5.7242    0.4404    0.0000 H   0  0  0  0  0  0  0  0  0  0  0  0
   -4.5000    1.8393    0.0000 H   0  0  0  0  0  0  0  0  0  0  0  0
   -1.5113    1.5786    0.0000 H   0  0  0  0  0  0  0  0  0  0  0  0
   -2.8753    3.2033    0.0000 H   0  0  0  0  0  0  0  0  0  0  0  0
    1.7798   -3.2255    0.0000 H   0  0  0  0  0  0  0  0  0  0  0  0
    0.9419    2.1175    0.0000 H   0  0  0  0  0  0  0  0  0  0  0  0
    5.8577   -1.3227    0.0000 H   0  0  0  0  0  0  0  0  0  0  0  0
  1  2  1  0
  1 20  1  0
  1 21  1  0
  1 22  1  0
  2  3  1  0
  3  4  2  0
  3  5  1  0
  3  7  1  0
  5  6  1  0
  6 23  1  0
  6 24  1  0
  6 25  1  0
  7  8  1  0
  8  9  2  0
  8 11  1  0
  9 10  1  0
  9 26  1  0
 11 12  2  0
 11 16  1  0
 12 13  1  0
 12 27  1  0
 13 14  2  0
 13 19  1  0
 14 15  1  0
 14 18  1  0
 15 16  2  0
 15 28  1  0
 16 17  1  0
M  END
$$$$

     RDKit          2D

 34 34  0  0  0  0  0  0  0  0999 V2000
    2.9639   -2.8866    0.0000 C   0  0  0  0  0  0  0  0  0  0  0  0
    1.8631   -1.8677    0.0000 C   0  0  0  0  0  0  0  0  0  0  0  0
    0.7623   -0.8488    0.0000 O   0  0  0  0  0  0  0  0  0  0  0  0
    1.0943    0.6140    0.0000 P   0  0  0  0  0  0  0  0  0  0  0  0
    1.4262    2.0768    0.0000 O   0  0  0  0  0  0  0  0  0  0  0  0
    2.5571    0.2820    0.0000 O   0  0  0  0  0  0  0  0  0  0  0  0
    3.5760    1.3829    0.0000 C   0  0  0  0  0  0  0  0  0  0  0  0
    4.5949    2.4837    0.0000 C   0  0  0  0  0  0  0  0  0  0  0  0
   -0.3685    0.9460    0.0000 O   0  0  0  0  0  0  0  0  0  0  0  0
   -1.3875   -0.1548    0.0000 C   0  0  0  0  0  0  0  0  0  0  0  0
   -0.9436   -1.5876    0.0000 C   0  0  0  0  0  0  0  0  0  0  0  0
   -1.9625   -2.6885    0.0000 Cl  0  0  0  0  0  0  0  0  0  0  0  0
   -2.8503    0.1772    0.0000 C   0  0  0  0  0  0  0  0  0  0  0  0
   -3.8692   -0.9237    0.0000 C   0  0  0  0  0  0  0  0  0  0  0  0
   -5.3320   -0.5917    0.0000 C   0  0  0  0  0  0  0  0  0  0  0  0
   -5.7759    0.8411    0.0000 C   0  0  0  0  0  0  0  0  0  0  0  0
   -4.7570    1.9419    0.0000 C   0  0  0  0  0  0  0  0  0  0  0  0
   -3.2942    1.6100    0.0000 C   0  0  0  0  0  0  0  0  0  0  0  0
   -7.2387    1.1731    0.0000 Cl  0  0  0  0  0  0  0  0  0  0  0  0
   -3.4253   -2.3565    0.0000 Cl  0  0  0  0  0  0  0  0  0  0  0  0
    1.9450   -3.9874    0.0000 H   0  0  0  0  0  0  0  0  0  0  0  0
    3.9828   -1.7858    0.0000 H   0  0  0  0  0  0  0  0  0  0  0  0
    4.0648   -3.9055    0.0000 H   0  0  0  0  0  0  0  0  0  0  0  0
    0.8442   -2.9685    0.0000 H   0  0  0  0  0  0  0  0  0  0  0  0
    2.8820   -0.7668    0.0000 H   0  0  0  0  0  0  0  0  0  0  0  0
    2.4751    2.4018    0.0000 H   0  0  0  0  0  0  0  0  0  0  0  0
    4.6768    0.3640    0.0000 H   0  0  0  0  0  0  0  0  0  0  0  0
    3.4940    3.5026    0.0000 H   0  0  0  0  0  0  0  0  0  0  0  0
    5.6957    1.4648    0.0000 H   0  0  0  0  0  0  0  0  0  0  0  0
    5.6138    3.5845    0.0000 H   0  0  0  0  0  0  0  0  0  0  0  0
    0.5192   -1.9196    0.0000 H   0  0  0  0  0  0  0  0  0  0  0  0
   -6.3509   -1.6925    0.0000 H   0  0  0  0  0  0  0  0  0  0  0  0
   -5.2009    3.3748    0.0000 H   0  0  0  0  0  0  0  0  0  0  0  0
   -2.2752    2.7108    0.0000 H   0  0  0  0  0  0  0  0  0  0  0  0
  1  2  1  0
  1 21  1  0
  1 22  1  0
  1 23  1  0
  2  3  1  0
  2 24  1  0
  2 25  1  0
  3  4  1  0
  4  5  2  0
  4  6  1  0
  4  9  1  0
  6  7  1  0
  7  8  1  0
  7 26  1  0
  7 27  1  0
  8 28  1  0
  8 29  1  0
  8 30  1  0
  9 10  1  0
 10 11  2  0
 10 13  1  0
 11 12  1  0
 11 31  1  0
 13 14  2  0
 13 18  1  0
 14 15  1  0
 14 20  1  0
 15 16  2  0
 15 32  1  0
 16 17  1  0
 16 19  1  0
 17 18  2  0
 17 33  1  0
 18 34  1  0
M  END
$$$$

     RDKit          2D

 35 36  0  0  0  0  0  0  0  0999 V2000
   -4.1746    0.4735    0.0000 C   0  0  0  0  0  0  0  0  0  0  0  0
   -4.8192   -0.8809    0.0000 C   0  0  0  0  0  0  0  0  0  0  0  0
   -6.1737   -0.2362    0.0000 C   0  0  0  0  0  0  0  0  0  0  0  0
   -6.4739    1.2334    0.0000 O   0  0  0  0  0  0  0  0  0  0  0  0
   -7.4091   -1.0868    0.0000 O   0  0  0  0  0  0  0  0  0  0  0  0
   -3.4648   -1.5255    0.0000 O   0  0  0  0  0  0  0  0  0  0  0  0
   -2.2293   -0.6749    0.0000 C   0  0  0  0  0  0  0  0  0  0  0  0
   -2.3483    0.8204    0.0000 C   0  0  0  0  0  0  0  0  0  0  0  0
   -1.1128    1.6710    0.0000 C   0  0  0  0  0  0  0  0  0  0  0  0
    0.2416    1.0263    0.0000 C   0  0  0  0  0  0  0  0  0  0  0  0
    0.3605   -0.4689    0.0000 C   0  0  0  0  0  0  0  0  0  0  0  0
   -0.8749   -1.3196    0.0000 C   0  0  0  0  0  0  0  0  0  0  0  0
    1.4771    1.8770    0.0000 O   0  0  0  0  0  0  0  0  0  0  0  0
    2.8315    1.2323    0.0000 C   0  0  0  0  0  0  0  0  0  0  0  0
    2.9504   -0.2630    0.0000 C   0  0  0  0  0  0  0  0  0  0  0  0
    4.3049   -0.9076    0.0000 C   0  0  0  0  0  0  0  0  0  0  0  0
    5.5403   -0.0570    0.0000 C   0  0  0  0  0  0  0  0  0  0  0  0
    5.4214    1.4383    0.0000 C   0  0  0  0  0  0  0  0  0  0  0  0
    4.0670    2.0829    0.0000 N   0  0  0  0  0  0  0  0  0  0  0  0
    6.8948   -0.7017    0.0000 C   0  0  0  0  0  0  0  0  0  0  0  0
    8.2492   -1.3463    0.0000 F   0  0  0  0  0  0  0  0  0  0  0  0
    7.5394    0.6527    0.0000 F   0  0  0  0  0  0  0  0  0  0  0  0
    6.2501   -2.0561    0.0000 F   0  0  0  0  0  0  0  0  0  0  0  0
    1.8279   -1.2579    0.0000 Cl  0  0  0  0  0  0  0  0  0  0  0  0
   -5.4403    1.2785    0.0000 H   0  0  0  0  0  0  0  0  0  0  0  0
   -2.9838    0.2323    0.0000 H   0  0  0  0  0  0  0  0  0  0  0  0
   -3.9223    1.2297    0.0000 H   0  0  0  0  0  0  0  0  0  0  0  0
   -5.4639   -2.2353    0.0000 H   0  0  0  0  0  0  0  0  0  0  0  0
   -8.7636   -0.4422    0.0000 H   0  0  0  0  0  0  0  0  0  0  0  0
   -3.0209    1.2482    0.0000 H   0  0  0  0  0  0  0  0  0  0  0  0
   -1.2317    3.1663    0.0000 H   0  0  0  0  0  0  0  0  0  0  0  0
    1.6263   -1.2739    0.0000 H   0  0  0  0  0  0  0  0  0  0  0  0
   -0.7560   -2.8148    0.0000 H   0  0  0  0  0  0  0  0  0  0  0  0
    4.4238   -2.4029    0.0000 H   0  0  0  0  0  0  0  0  0  0  0  0
    6.6569    2.2889    0.0000 H   0  0  0  0  0  0  0  0  0  0  0  0
  1  2  1  0
  1 25  1  0
  1 26  1  0
  1 27  1  0
  2  3  1  0
  2  6  1  0
  2 28  1  1
  3  4  2  0
  3  5  1  0
  5 29  1  0
  6  7  1  0
  7  8  2  0
  7 12  1  0
  8  9  1  0
  8 30  1  0
  9 10  2  0
  9 31  1  0
 10 11  1  0
 10 13  1  0
 11 12  2  0
 11 32  1  0
 12 33  1  0
 13 14  1  0
 14 15  2  0
 14 19  1  0
 15 16  1  0
 15 24  1  0
 16 17  2  0
 16 34  1  0
 17 18  1  0
 17 20  1  0
 18 19  2  0
 18 35  1  0
 20 21  1  0
 20 22  1  0
 20 23  1  0
M  END
$$$$

     RDKit          2D

 43 44  0  0  1  0  0  0  0  0999 V2000
   -4.7878   -1.1495    0.0000 C   0  0  0  0  0  0  0  0  0  0  0  0
   -3.2965   -0.9888    0.0000 C   0  0  0  0  0  0  0  0  0  0  0  0
   -3.7136    0.4520    0.0000 C   0  0  0  0  0  0  0  0  0  0  0  0
   -2.6744    1.5337    0.0000 C   0  0  0  0  0  0  0  0  0  0  0  0
   -1.2181    1.1745    0.0000 C   0  0  0  0  0  0  0  0  0  0  0  0
   -0.0548    2.1215    0.0000 O   0  0  0  0  0  0  0  0  0  0  0  0
   -0.8009   -0.2663    0.0000 C   0  0  0  0  0  0  0  0  0  0  0  0
   -1.8401   -1.3480    0.0000 C   0  0  0  0  0  0  0  0  0  0  0  0
    0.0839   -1.4775    0.0000 C   0  0  0  0  0  0  0  0  0  0  0  0
    1.2952   -0.5927    0.0000 C   0  0  0  0  0  0  0  0  0  0  0  0
    2.5064    0.2921    0.0000 C   0  0  0  0  0  0  0  0  0  0  0  0
    3.1674   -1.0544    0.0000 C   0  0  0  0  0  0  0  0  0  0  0  0
    4.6640   -1.1552    0.0000 C   0  0  0  0  0  0  0  0  0  0  0  0
    5.3251   -2.5017    0.0000 O   0  0  0  0  0  0  0  0  0  0  0  0
    5.4996    0.0905    0.0000 N   0  0  0  0  0  0  0  0  0  0  0  0
    4.8386    1.4370    0.0000 C   0  0  0  0  0  0  0  0  0  0  0  0
    5.6742    2.6827    0.0000 O   0  0  0  0  0  0  0  0  0  0  0  0
    3.3420    1.5378    0.0000 C   0  0  0  0  0  0  0  0  0  0  0  0
    0.9687   -2.6888    0.0000 O   0  0  0  0  0  0  0  0  0  0  0  0
   -2.0679    2.9056    0.0000 C   0  0  0  0  0  0  0  0  0  0  0  0
   -4.6272   -2.6408    0.0000 H   0  0  0  0  0  0  0  0  0  0  0  0
   -4.9692   -0.3732    0.0000 H   0  0  0  0  0  0  0  0  0  0  0  0
   -6.2792   -1.3101    0.0000 H   0  0  0  0  0  0  0  0  0  0  0  0
   -3.3972   -2.4854    0.0000 H   0  0  0  0  0  0  0  0  0  0  0  0
   -4.4667    0.1905    0.0000 H   0  0  0  0  0  0  0  0  0  0  0  0
   -4.5985    1.6632    0.0000 H   0  0  0  0  0  0  0  0  0  0  0  0
   -3.9202    2.3693    0.0000 H   0  0  0  0  0  0  0  0  0  0  0  0
    0.4550    0.5540    0.0000 H   0  0  0  0  0  0  0  0  0  0  0  0
   -0.7055   -2.3292    0.0000 H   0  0  0  0  0  0  0  0  0  0  0  0
   -2.4467   -2.7199    0.0000 H   0  0  0  0  0  0  0  0  0  0  0  0
   -1.0105   -2.5034    0.0000 H   0  0  0  0  0  0  0  0  0  0  0  0
    2.1800   -1.8040    0.0000 H   0  0  0  0  0  0  0  0  0  0  0  0
    0.5646    0.7174    0.0000 H   0  0  0  0  0  0  0  0  0  0  0  0
    1.4247    1.3313    0.0000 H   0  0  0  0  0  0  0  0  0  0  0  0
    3.5087   -2.5151    0.0000 H   0  0  0  0  0  0  0  0  0  0  0  0
    1.7882   -1.6441    0.0000 H   0  0  0  0  0  0  0  0  0  0  0  0
    6.9962   -0.0102    0.0000 H   0  0  0  0  0  0  0  0  0  0  0  0
    1.9701    2.1444    0.0000 H   0  0  0  0  0  0  0  0  0  0  0  0
    3.7011    2.9942    0.0000 H   0  0  0  0  0  0  0  0  0  0  0  0
    2.4546   -2.8938    0.0000 H   0  0  0  0  0  0  0  0  0  0  0  0
   -0.6323    2.4707    0.0000 H   0  0  0  0  0  0  0  0  0  0  0  0
   -3.4398    3.5121    0.0000 H   0  0  0  0  0  0  0  0  0  0  0  0
   -1.4613    4.2775    0.0000 H   0  0  0  0  0  0  0  0  0  0  0  0
  1 21  1  0
  1 22  1  0
  1 23  1  0
  2  3  1  0
  2  8  1  0
  2 24  1  6
  2  1  1  0
  3  4  1  0
  3 25  1  0
  3 26  1  0
  4  5  1  0
  4 20  1  0
  4 27  1  1
  5  6  2  0
  5  7  1  0
  7  8  1  0
  7  9  1  0
  7 28  1  1
  8 29  1  0
  8 30  1  0
  9 10  1  0
  9 19  1  0
  9 31  1  6
 10 11  1  0
 10 32  1  0
 10 33  1  0
 11 12  1  0
 11 18  1  0
 11 34  1  0
 12 13  1  0
 12 35  1  0
 12 36  1  0
 13 14  2  0
 13 15  1  0
 15 16  1  0
 15 37  1  0
 16 17  2  0
 16 18  1  0
 18 38  1  0
 18 39  1  0
 19 40  1  0
 20 41  1  0
 20 42  1  0
 20 43  1  0
M  END
$$$$

     RDKit          2D

 75 74  0  0  0  0  0  0  0  0999 V2000
   -7.4540   -0.1363    0.0000 C   0  0  0  0  0  0  0  0  0  0  0  0
   -6.7047    1.1631    0.0000 C   0  0  0  0  0  0  0  0  0  0  0  0
   -5.2047    1.1639    0.0000 C   0  0  0  0  0  0  0  0  0  0  0  0
   -4.4540   -0.1348    0.0000 C   0  0  0  0  0  0  0  0  0  0  0  0
   -5.2034   -1.4342    0.0000 C   0  0  0  0  0  0  0  0  0  0  0  0
   -6.7034   -1.4350    0.0000 C   0  0  0  0  0  0  0  0  0  0  0  0
   -7.4527   -2.7344    0.0000 C   0  0  0  0  0  0  0  0  0  0  0  0
   -6.7020   -4.0331    0.0000 N   0  0  0  0  0  0  0  0  0  0  0  0
   -8.9527   -2.7352    0.0000 N   0  0  0  0  0  0  0  0  0  0  0  0
   -4.4553    2.4633    0.0000 O   0  0  0  0  0  0  0  0  0  0  0  0
   -2.9553    2.4640    0.0000 C   0  0  0  0  0  0  0  0  0  0  0  0
   -1.4553    2.4648    0.0000 C   0  0  0  0  0  0  0  0  0  0  0  0
    0.0447    2.4655    0.0000 C   0  0  0  0  0  0  0  0  0  0  0  0
    1.5447    2.4663    0.0000 C   0  0  0  0  0  0  0  0  0  0  0  0
    3.0447    2.4671    0.0000 C   0  0  0  0  0  0  0  0  0  0  0  0
    4.5447    2.4678    0.0000 O   0  0  0  0  0  0  0  0  0  0  0  0
    5.2953    1.1692    0.0000 C   0  0  0  0  0  0  0  0  0  0  0  0
    4.5460   -0.1303    0.0000 C   0  0  0  0  0  0  0  0  0  0  0  0
    5.2966   -1.4289    0.0000 C   0  0  0  0  0  0  0  0  0  0  0  0
    6.7966   -1.4282    0.0000 C   0  0  0  0  0  0  0  0  0  0  0  0
    7.5460   -0.1287    0.0000 C   0  0  0  0  0  0  0  0  0  0  0  0
    6.7953    1.1699    0.0000 C   0  0  0  0  0  0  0  0  0  0  0  0
    7.5473   -2.7268    0.0000 C   0  0  0  0  0  0  0  0  0  0  0  0
    9.0473   -2.7261    0.0000 N   0  0  0  0  0  0  0  0  0  0  0  0
    6.7980   -4.0262    0.0000 N   0  0  0  0  0  0  0  0  0  0  0  0
   -1.5000    6.4671    0.0000 C   0  0  0  0  0  0  0  0  0  0  0  0
    0.0000    6.4671    0.0000 C   0  0  0  0  0  0  0  0  0  0  0  0
    1.5000    6.4671    0.0000 S   0  0  0  0  0  0  0  0  0  0  0  0
    1.5000    4.9671    0.0000 O   0  0  0  0  0  0  0  0  0  0  0  0
    1.5000    7.9671    0.0000 O   0  0  0  0  0  0  0  0  0  0  0  0
    3.0000    6.4671    0.0000 O   0  0  0  0  0  0  0  0  0  0  0  0
   -3.0000    6.4671    0.0000 O   0  0  0  0  0  0  0  0  0  0  0  0
   -1.5000   10.4671    0.0000 C   0  0  0  0  0  0  0  0  0  0  0  0
    0.0000   10.4671    0.0000 C   0  0  0  0  0  0  0  0  0  0  0  0
    1.5000   10.4671    0.0000 S   0  0  0  0  0  0  0  0  0  0  0  0
    1.5000    8.9671    0.0000 O   0  0  0  0  0  0  0  0  0  0  0  0
    1.5000   11.9671    0.0000 O   0  0  0  0  0  0  0  0  0  0  0  0
    3.0000   10.4671    0.0000 O   0  0  0  0  0  0  0  0  0  0  0  0
   -3.0000   10.4671    0.0000 O   0  0  0  0  0  0  0  0  0  0  0  0
   -8.9540   -0.1371    0.0000 H   0  0  0  0  0  0  0  0  0  0  0  0
   -7.4553    2.4618    0.0000 H   0  0  0  0  0  0  0  0  0  0  0  0
   -2.9540   -0.1340    0.0000 H   0  0  0  0  0  0  0  0  0  0  0  0
   -4.4527   -2.7329    0.0000 H   0  0  0  0  0  0  0  0  0  0  0  0
   -5.2020   -4.0323    0.0000 H   0  0  0  0  0  0  0  0  0  0  0  0
   -9.7020   -4.0346    0.0000 H   0  0  0  0  0  0  0  0  0  0  0  0
   -9.7034   -1.4365    0.0000 H   0  0  0  0  0  0  0  0  0  0  0  0
   -2.9561    3.9640    0.0000 H   0  0  0  0  0  0  0  0  0  0  0  0
   -2.9546    0.9640    0.0000 H   0  0  0  0  0  0  0  0  0  0  0  0
   -1.4546    0.9648    0.0000 H   0  0  0  0  0  0  0  0  0  0  0  0
   -1.4561    3.9648    0.0000 H   0  0  0  0  0  0  0  0  0  0  0  0
    0.0454    0.9655    0.0000 H   0  0  0  0  0  0  0  0  0  0  0  0
    0.0439    3.9655    0.0000 H   0  0  0  0  0  0  0  0  0  0  0  0
    1.5439    3.9663    0.0000 H   0  0  0  0  0  0  0  0  0  0  0  0
    1.5454    0.9663    0.0000 H   0  0  0  0  0  0  0  0  0  0  0  0
    3.0454    0.9671    0.0000 H   0  0  0  0  0  0  0  0  0  0  0  0
    3.0439    3.9671    0.0000 H   0  0  0  0  0  0  0  0  0  0  0  0
    3.0460   -0.1310    0.0000 H   0  0  0  0  0  0  0  0  0  0  0  0
    4.5473   -2.7283    0.0000 H   0  0  0  0  0  0  0  0  0  0  0  0
    9.0460   -0.1280    0.0000 H   0  0  0  0  0  0  0  0  0  0  0  0
    7.5447    2.4693    0.0000 H   0  0  0  0  0  0  0  0  0  0  0  0
    9.7966   -1.4266    0.0000 H   0  0  0  0  0  0  0  0  0  0  0  0
    7.5486   -5.3249    0.0000 H   0  0  0  0  0  0  0  0  0  0  0  0
    5.2980   -4.0270    0.0000 H   0  0  0  0  0  0  0  0  0  0  0  0
   -1.5000    4.9671    0.0000 H   0  0  0  0  0  0  0  0  0  0  0  0
   -1.5000    7.9671    0.0000 H   0  0  0  0  0  0  0  0  0  0  0  0
    0.0000    4.9671    0.0000 H   0  0  0  0  0  0  0  0  0  0  0  0
   -0.0000    7.9671    0.0000 H   0  0  0  0  0  0  0  0  0  0  0  0
    3.7500    7.7661    0.0000 H   0  0  0  0  0  0  0  0  0  0  0  0
   -3.7500    7.7661    0.0000 H   0  0  0  0  0  0  0  0  0  0  0  0
   -1.5000    8.9671    0.0000 H   0  0  0  0  0  0  0  0  0  0  0  0
   -1.5000   11.9671    0.0000 H   0  0  0  0  0  0  0  0  0  0  0  0
    0.0000    8.9671    0.0000 H   0  0  0  0  0  0  0  0  0  0  0  0
   -0.0000   11.9671    0.0000 H   0  0  0  0  0  0  0  0  0  0  0  0
    3.7500   11.7661    0.0000 H   0  0  0  0  0  0  0  0  0  0  0  0
   -3.7500   11.7661    0.0000 H   0  0  0  0  0  0  0  0  0  0  0  0
  1  2  2  0
  1  6  1  0
  1 40  1  0
  2  3  1  0
  2 41  1  0
  3  4  2  0
  3 10  1  0
  4  5  1  0
  4 42  1  0
  5  6  2  0
  5 43  1  0
  6  7  1  0
  7  8  2  0
  7  9  1  0
  8 44  1  0
  9 45  1  0
  9 46  1  0
 10 11  1  0
 11 12  1  0
 11 47  1  0
 11 48  1  0
 12 13  1  0
 12 49  1  0
 12 50  1  0
 13 14  1  0
 13 51  1  0
 13 52  1  0
 14 15  1  0
 14 53  1  0
 14 54  1  0
 15 16  1  0
 15 55  1  0
 15 56  1  0
 16 17  1  0
 17 18  2  0
 17 22  1  0
 18 19  1  0
 18 57  1  0
 19 20  2  0
 19 58  1  0
 20 21  1  0
 20 23  1  0
 21 22  2  0
 21 59  1  0
 22 60  1  0
 23 24  2  0
 23 25  1  0
 24 61  1  0
 25 62  1  0
 25 63  1  0
 26 27  1  0
 26 32  1  0
 26 64  1  0
 26 65  1  0
 27 28  1  0
 27 66  1  0
 27 67  1  0
 28 29  2  0
 28 30  2  0
 28 31  1  0
 31 68  1  0
 32 69  1  0
 33 34  1  0
 33 39  1  0
 33 70  1  0
 33 71  1  0
 34 35  1  0
 34 72  1  0
 34 73  1  0
 35 36  2  0
 35 37  2  0
 35 38  1  0
 38 74  1  0
 39 75  1  0
M  END
$$$$

     RDKit          2D

 38 39  0  0  0  0  0  0  0  0999 V2000
    4.0291   -0.5129    0.0000 C   0  0  0  0  0  0  0  0  0  0  0  0
    2.6122   -0.0207    0.0000 C   0  0  0  0  0  0  0  0  0  0  0  0
    2.3301    1.4526    0.0000 C   0  0  0  0  0  0  0  0  0  0  0  0
    0.9132    1.9449    0.0000 C   0  0  0  0  0  0  0  0  0  0  0  0
   -0.2216    0.9639    0.0000 C   0  0  0  0  0  0  0  0  0  0  0  0
    0.0605   -0.5093    0.0000 C   0  0  0  0  0  0  0  0  0  0  0  0
    1.4774   -1.0016    0.0000 C   0  0  0  0  0  0  0  0  0  0  0  0
    1.7596   -2.4748    0.0000 N   0  0  0  0  0  0  0  0  0  0  0  0
    0.7528   -3.5868    0.0000 O   0  0  0  0  0  0  0  0  0  0  0  0
    3.1765   -2.9671    0.0000 O   0  0  0  0  0  0  0  0  0  0  0  0
   -1.2534   -1.2329    0.0000 C   0  0  0  0  0  0  0  0  0  0  0  0
   -2.3476   -0.2069    0.0000 C   0  0  0  0  0  0  0  0  0  0  0  0
   -1.7099    1.1508    0.0000 C   0  0  0  0  0  0  0  0  0  0  0  0
   -3.1269    1.6431    0.0000 C   0  0  0  0  0  0  0  0  0  0  0  0
   -1.3685    2.6114    0.0000 C   0  0  0  0  0  0  0  0  0  0  0  0
   -0.3965   -2.4640    0.0000 C   0  0  0  0  0  0  0  0  0  0  0  0
   -2.3882   -2.2138    0.0000 C   0  0  0  0  0  0  0  0  0  0  0  0
    3.4649    2.4335    0.0000 N   0  0  0  0  0  0  0  0  0  0  0  0
    3.1827    3.9068    0.0000 O   0  0  0  0  0  0  0  0  0  0  0  0
    4.8818    1.9412    0.0000 O   0  0  0  0  0  0  0  0  0  0  0  0
    3.5369   -1.9299    0.0000 H   0  0  0  0  0  0  0  0  0  0  0  0
    4.5214    0.9040    0.0000 H   0  0  0  0  0  0  0  0  0  0  0  0
    5.4461   -1.0052    0.0000 H   0  0  0  0  0  0  0  0  0  0  0  0
    0.6310    3.4181    0.0000 H   0  0  0  0  0  0  0  0  0  0  0  0
   -3.3926   -1.2830    0.0000 H   0  0  0  0  0  0  0  0  0  0  0  0
   -3.0750    0.1194    0.0000 H   0  0  0  0  0  0  0  0  0  0  0  0
   -3.4783    0.9276    0.0000 H   0  0  0  0  0  0  0  0  0  0  0  0
   -2.8110    3.1095    0.0000 H   0  0  0  0  0  0  0  0  0  0  0  0
   -4.5438    2.1354    0.0000 H   0  0  0  0  0  0  0  0  0  0  0  0
   -2.7766    3.1284    0.0000 H   0  0  0  0  0  0  0  0  0  0  0  0
    0.0922    2.2700    0.0000 H   0  0  0  0  0  0  0  0  0  0  0  0
   -1.0270    4.0721    0.0000 H   0  0  0  0  0  0  0  0  0  0  0  0
   -1.5139   -3.4646    0.0000 H   0  0  0  0  0  0  0  0  0  0  0  0
    0.8346   -1.6070    0.0000 H   0  0  0  0  0  0  0  0  0  0  0  0
    0.3040   -3.7904    0.0000 H   0  0  0  0  0  0  0  0  0  0  0  0
   -1.5529   -3.4597    0.0000 H   0  0  0  0  0  0  0  0  0  0  0  0
   -3.5002   -1.2071    0.0000 H   0  0  0  0  0  0  0  0  0  0  0  0
   -3.5230   -3.1948    0.0000 H   0  0  0  0  0  0  0  0  0  0  0  0
  1  2  1  0
  1 21  1  0
  1 22  1  0
  1 23  1  0
  2  3  2  0
  2  7  1  0
  3  4  1  0
  3 18  1  0
  4  5  2  0
  4 24  1  0
  5  6  1  0
  5 13  1  0
  6  7  2  0
  6 11  1  0
  7  8  1  0
  8  9  2  0
  8 10  1  0
 11 12  1  0
 11 16  1  0
 11 17  1  0
 12 13  1  0
 12 25  1  0
 12 26  1  0
 13 14  1  0
 13 15  1  0
 14 27  1  0
 14 28  1  0
 14 29  1  0
 15 30  1  0
 15 31  1  0
 15 32  1  0
 16 33  1  0
 16 34  1  0
 16 35  1  0
 17 36  1  0
 17 37  1  0
 17 38  1  0
 18 19  2  0
 18 20  1  0
M  CHG  4   8   1  10  -1  18   1  20  -1
M  END
$$$$

     RDKit          2D

 61 65  0  0  1  0  0  0  0  0999 V2000
    0.0249   -5.5291    0.0000 C   0  0  0  0  0  0  0  0  0  0  0  0
   -0.1278   -4.0369    0.0000 C   0  0  0  0  0  0  0  0  0  0  0  0
   -1.4965   -3.4231    0.0000 O   0  0  0  0  0  0  0  0  0  0  0  0
    1.0881   -3.1585    0.0000 S   0  0  0  0  0  0  0  0  0  0  0  0
    0.9353   -1.6663    0.0000 C   0  0  0  0  0  0  0  0  0  0  0  0
    2.4314   -1.7750    0.0000 C   0  0  0  0  0  0  0  0  0  0  0  0
    3.2735   -0.5337    0.0000 C   0  0  0  0  0  0  0  0  0  0  0  0
    4.7696   -0.6424    0.0000 C   0  0  0  0  0  0  0  0  0  0  0  0
    5.6117    0.5989    0.0000 C   0  0  0  0  0  0  0  0  0  0  0  0
    7.1078    0.4902    0.0000 O   0  0  0  0  0  0  0  0  0  0  0  0
    4.9578    1.9489    0.0000 C   0  0  0  0  0  0  0  0  0  0  0  0
    3.4617    2.0575    0.0000 C   0  0  0  0  0  0  0  0  0  0  0  0
    2.6196    0.8163    0.0000 C   0  0  0  0  0  0  0  0  0  0  0  0
    1.1235    0.9249    0.0000 C   0  0  0  0  0  0  0  0  0  0  0  0
    0.2814   -0.3164    0.0000 C   0  0  0  0  0  0  0  0  0  0  0  0
   -1.2147   -0.2077    0.0000 C   0  0  0  0  0  0  0  0  0  0  0  0
   -2.2965   -1.2467    0.0000 C   0  0  0  0  0  0  0  0  0  0  0  0
   -3.6190   -0.5390    0.0000 C   0  0  0  0  0  0  0  0  0  0  0  0
   -3.3545    0.9375    0.0000 C   0  0  0  0  0  0  0  0  0  0  0  0
   -1.8686    1.1423    0.0000 C   0  0  0  0  0  0  0  0  0  0  0  0
   -1.0264    2.3836    0.0000 C   0  0  0  0  0  0  0  0  0  0  0  0
    0.4696    2.2749    0.0000 C   0  0  0  0  0  0  0  0  0  0  0  0
   -2.2859   -0.2985    0.0000 C   0  0  0  0  0  0  0  0  0  0  0  0
   -4.8405    0.7328    0.0000 C   0  0  0  0  0  0  0  0  0  0  0  0
   -5.4944    2.0828    0.0000 C   0  0  0  0  0  0  0  0  0  0  0  0
   -4.4126    3.1218    0.0000 C   0  0  0  0  0  0  0  0  0  0  0  0
   -4.6173    4.6078    0.0000 O   0  0  0  0  0  0  0  0  0  0  0  0
   -3.0901    2.4140    0.0000 O   0  0  0  0  0  0  0  0  0  0  0  0
    4.1156    0.7076    0.0000 C   0  0  0  0  0  0  0  0  0  0  0  0
   -1.4673   -5.6819    0.0000 H   0  0  0  0  0  0  0  0  0  0  0  0
    1.5171   -5.3764    0.0000 H   0  0  0  0  0  0  0  0  0  0  0  0
    0.1777   -7.0213    0.0000 H   0  0  0  0  0  0  0  0  0  0  0  0
   -0.2356   -2.3382    0.0000 H   0  0  0  0  0  0  0  0  0  0  0  0
    2.0645   -3.2295    0.0000 H   0  0  0  0  0  0  0  0  0  0  0  0
    3.8000   -2.3888    0.0000 H   0  0  0  0  0  0  0  0  0  0  0  0
    5.4235   -1.9923    0.0000 H   0  0  0  0  0  0  0  0  0  0  0  0
    4.8050    3.4411    0.0000 H   0  0  0  0  0  0  0  0  0  0  0  0
    6.4008    2.3584    0.0000 H   0  0  0  0  0  0  0  0  0  0  0  0
    2.6019    2.7331    0.0000 H   0  0  0  0  0  0  0  0  0  0  0  0
    3.8285    3.5120    0.0000 H   0  0  0  0  0  0  0  0  0  0  0  0
    1.8815    2.0421    0.0000 H   0  0  0  0  0  0  0  0  0  0  0  0
   -0.3725    1.0336    0.0000 H   0  0  0  0  0  0  0  0  0  0  0  0
   -0.8022   -1.3505    0.0000 H   0  0  0  0  0  0  0  0  0  0  0  0
   -1.4182   -2.4627    0.0000 H   0  0  0  0  0  0  0  0  0  0  0  0
   -2.9811   -2.5814    0.0000 H   0  0  0  0  0  0  0  0  0  0  0  0
   -4.1847   -1.9282    0.0000 H   0  0  0  0  0  0  0  0  0  0  0  0
   -5.0999   -0.3004    0.0000 H   0  0  0  0  0  0  0  0  0  0  0  0
   -0.6596    3.8380    0.0000 H   0  0  0  0  0  0  0  0  0  0  0  0
   -2.2059    3.3103    0.0000 H   0  0  0  0  0  0  0  0  0  0  0  0
    1.5234    2.8796    0.0000 H   0  0  0  0  0  0  0  0  0  0  0  0
    0.3169    3.7671    0.0000 H   0  0  0  0  0  0  0  0  0  0  0  0
   -1.5967   -0.6990    0.0000 H   0  0  0  0  0  0  0  0  0  0  0  0
   -3.7849   -0.2422    0.0000 H   0  0  0  0  0  0  0  0  0  0  0  0
   -3.1920   -1.4939    0.0000 H   0  0  0  0  0  0  0  0  0  0  0  0
   -4.6618   -0.7565    0.0000 H   0  0  0  0  0  0  0  0  0  0  0  0
   -6.2514    0.2236    0.0000 H   0  0  0  0  0  0  0  0  0  0  0  0
   -6.7686    1.2913    0.0000 H   0  0  0  0  0  0  0  0  0  0  0  0
   -6.4147    3.2673    0.0000 H   0  0  0  0  0  0  0  0  0  0  0  0
    4.7222   -0.6643    0.0000 H   0  0  0  0  0  0  0  0  0  0  0  0
    4.9141    1.9774    0.0000 H   0  0  0  0  0  0  0  0  0  0  0  0
    5.5935    0.9641    0.0000 H   0  0  0  0  0  0  0  0  0  0  0  0
  1  2  1  0
  1 30  1  0
  1 31  1  0
  1 32  1  0
  2  3  2  0
  2  4  1  0
  4  5  1  0
  5  6  1  0
  5 15  1  0
  5 33  1  6
  6  7  1  0
  6 34  1  0
  6 35  1  0
  7  8  2  0
  7 13  1  0
  8  9  1  0
  8 36  1  0
  9 10  2  0
  9 11  1  0
 11 12  1  0
 11 37  1  0
 11 38  1  0
 12 13  1  0
 12 39  1  0
 12 40  1  0
 13 14  1  0
 13 29  1  6
 14 15  1  0
 14 22  1  0
 14 41  1  1
 15 16  1  0
 15 42  1  6
 16 17  1  0
 16 20  1  0
 16 43  1  1
 17 18  1  0
 17 44  1  0
 17 45  1  0
 18 19  1  0
 18 46  1  0
 18 47  1  0
 19 20  1  0
 19 24  1  0
 19 28  1  6
 20 21  1  0
 20 23  1  6
 21 22  1  0
 21 48  1  0
 21 49  1  0
 22 50  1  0
 22 51  1  0
 23 52  1  0
 23 53  1  0
 23 54  1  0
 24 25  1  0
 24 55  1  0
 24 56  1  0
 25 26  1  0
 25 57  1  0
 25 58  1  0
 26 27  2  0
 26 28  1  0
 29 59  1  0
 29 60  1  0
 29 61  1  0
M  END
$$$$

     RDKit          2D

 11 11  0  0  0  0  0  0  0  0999 V2000
   -1.2146   -0.7500    0.0000 C   0  0  0  0  0  0  0  0  0  0  0  0
    0.2120   -1.2135    0.0000 C   0  0  0  0  0  0  0  0  0  0  0  0
    1.0937    0.0000    0.0000 C   0  0  0  0  0  0  0  0  0  0  0  0
    0.2120    1.2135    0.0000 C   0  0  0  0  0  0  0  0  0  0  0  0
   -1.2146    0.7500    0.0000 C   0  0  0  0  0  0  0  0  0  0  0  0
   -2.4281    1.6317    0.0000 Cl  0  0  0  0  0  0  0  0  0  0  0  0
    0.6755    2.6401    0.0000 Cl  0  0  0  0  0  0  0  0  0  0  0  0
    2.2084    1.0037    0.0000 Cl  0  0  0  0  0  0  0  0  0  0  0  0
    2.2084   -1.0037    0.0000 Cl  0  0  0  0  0  0  0  0  0  0  0  0
    0.6755   -2.6401    0.0000 Cl  0  0  0  0  0  0  0  0  0  0  0  0
   -2.4281   -1.6317    0.0000 Cl  0  0  0  0  0  0  0  0  0  0  0  0
  1  2  2  0
  1  5  1  0
  1 11  1  0
  2  3  1  0
  2 10  1  0
  3  4  1  0
  3  8  1  0
  3  9  1  0
  4  5  2  0
  4  7  1  0
  5  6  1  0
M  END
$$$$

     RDKit          2D

 38 41  0  0  0  0  0  0  0  0999 V2000
    3.1002   -2.7115    0.0000 C   0  0  0  0  0  0  0  0  0  0  0  0
    1.6948   -2.1871    0.0000 C   0  0  0  0  0  0  0  0  0  0  0  0
    1.4463   -0.7079    0.0000 N   0  0  0  0  0  0  0  0  0  0  0  0
    2.6031    0.2470    0.0000 C   0  0  0  0  0  0  0  0  0  0  0  0
    4.0085   -0.2774    0.0000 C   0  0  0  0  0  0  0  0  0  0  0  0
    4.2570   -1.7567    0.0000 N   0  0  0  0  0  0  0  0  0  0  0  0
    0.0410   -0.1834    0.0000 C   0  0  0  0  0  0  0  0  0  0  0  0
   -1.0413   -1.2221    0.0000 N   0  0  0  0  0  0  0  0  0  0  0  0
   -2.5281   -1.0236    0.0000 C   0  0  0  0  0  0  0  0  0  0  0  0
   -3.2561   -2.3351    0.0000 C   0  0  0  0  0  0  0  0  0  0  0  0
   -4.7559   -2.3603    0.0000 C   0  0  0  0  0  0  0  0  0  0  0  0
   -5.5276   -1.0741    0.0000 C   0  0  0  0  0  0  0  0  0  0  0  0
   -4.7996    0.2374    0.0000 C   0  0  0  0  0  0  0  0  0  0  0  0
   -3.2999    0.2627    0.0000 C   0  0  0  0  0  0  0  0  0  0  0  0
   -2.7755    1.6680    0.0000 O   0  0  0  0  0  0  0  0  0  0  0  0
   -1.3497    2.1342    0.0000 C   0  0  0  0  0  0  0  0  0  0  0  0
   -0.0963    1.3103    0.0000 C   0  0  0  0  0  0  0  0  0  0  0  0
    1.2440    1.9838    0.0000 C   0  0  0  0  0  0  0  0  0  0  0  0
    1.3308    3.4812    0.0000 C   0  0  0  0  0  0  0  0  0  0  0  0
    0.0774    4.3052    0.0000 C   0  0  0  0  0  0  0  0  0  0  0  0
   -1.2629    3.6317    0.0000 C   0  0  0  0  0  0  0  0  0  0  0  0
    2.6711    4.1548    0.0000 Cl  0  0  0  0  0  0  0  0  0  0  0  0
    4.2414   -3.6850    0.0000 H   0  0  0  0  0  0  0  0  0  0  0  0
    2.3397   -4.0045    0.0000 H   0  0  0  0  0  0  0  0  0  0  0  0
    1.4224   -3.6622    0.0000 H   0  0  0  0  0  0  0  0  0  0  0  0
    0.1949   -2.1750    0.0000 H   0  0  0  0  0  0  0  0  0  0  0  0
    2.1398    0.8957    0.0000 H   0  0  0  0  0  0  0  0  0  0  0  0
    3.3636    1.5399    0.0000 H   0  0  0  0  0  0  0  0  0  0  0  0
    4.2809    1.1977    0.0000 H   0  0  0  0  0  0  0  0  0  0  0  0
    5.5084   -0.2895    0.0000 H   0  0  0  0  0  0  0  0  0  0  0  0
    5.6623   -2.2811    0.0000 H   0  0  0  0  0  0  0  0  0  0  0  0
   -2.4843   -3.6213    0.0000 H   0  0  0  0  0  0  0  0  0  0  0  0
   -5.4839   -3.6718    0.0000 H   0  0  0  0  0  0  0  0  0  0  0  0
   -7.0274   -1.0994    0.0000 H   0  0  0  0  0  0  0  0  0  0  0  0
   -5.5714    1.5236    0.0000 H   0  0  0  0  0  0  0  0  0  0  0  0
    1.9841    1.4972    0.0000 H   0  0  0  0  0  0  0  0  0  0  0  0
    0.1643    5.8027    0.0000 H   0  0  0  0  0  0  0  0  0  0  0  0
   -2.5163    4.4557    0.0000 H   0  0  0  0  0  0  0  0  0  0  0  0
  1  2  1  0
  1  6  1  0
  1 23  1  0
  1 24  1  0
  2  3  1  0
  2 25  1  0
  2 26  1  0
  3  4  1  0
  3  7  1  0
  4  5  1  0
  4 27  1  0
  4 28  1  0
  5  6  1  0
  5 29  1  0
  5 30  1  0
  6 31  1  0
  7  8  2  0
  7 17  1  0
  8  9  1  0
  9 10  1  0
  9 14  2  0
 10 11  2  0
 10 32  1  0
 11 12  1  0
 11 33  1  0
 12 13  2  0
 12 34  1  0
 13 14  1  0
 13 35  1  0
 14 15  1  0
 15 16  1  0
 16 17  2  0
 16 21  1  0
 17 18  1  0
 18 19  2  0
 18 36  1  0
 19 20  1  0
 19 22  1  0
 20 21  2  0
 20 37  1  0
 21 38  1  0
M  END
$$$$

     RDKit          2D

 88 91  0  0  1  0  0  0  0  0999 V2000
    4.5784    3.3251    0.0000 C   0  0  0  0  0  0  0  0  0  0  0  0
    4.5698    1.8251    0.0000 C   0  0  0  0  0  0  0  0  0  0  0  0
    5.9436    2.4273    0.0000 C   0  0  0  0  0  0  0  0  0  0  0  0
    7.1520    1.5386    0.0000 C   0  0  0  0  0  0  0  0  0  0  0  0
    6.9866    0.0478    0.0000 C   0  0  0  0  0  0  0  0  0  0  0  0
    5.6128   -0.5544    0.0000 C   0  0  0  0  0  0  0  0  0  0  0  0
    4.4044    0.3343    0.0000 C   0  0  0  0  0  0  0  0  0  0  0  0
    2.9354    0.0309    0.0000 C   0  0  0  0  0  0  0  0  0  0  0  0
    2.1929    1.3342    0.0000 C   0  0  0  0  0  0  0  0  0  0  0  0
    3.2030    2.4431    0.0000 C   0  0  0  0  0  0  0  0  0  0  0  0
    3.9605    3.7378    0.0000 O   0  0  0  0  0  0  0  0  0  0  0  0
    5.4474   -2.0453    0.0000 C   0  0  0  0  0  0  0  0  0  0  0  0
    6.6558   -2.9339    0.0000 C   0  0  0  0  0  0  0  0  0  0  0  0
    8.0296   -2.3318    0.0000 C   0  0  0  0  0  0  0  0  0  0  0  0
    8.1950   -0.8409    0.0000 C   0  0  0  0  0  0  0  0  0  0  0  0
    9.5688   -0.2387    0.0000 C   0  0  0  0  0  0  0  0  0  0  0  0
   10.7773   -1.1274    0.0000 C   0  0  0  0  0  0  0  0  0  0  0  0
   10.6119   -2.6182    0.0000 C   0  0  0  0  0  0  0  0  0  0  0  0
    9.2380   -3.2204    0.0000 C   0  0  0  0  0  0  0  0  0  0  0  0
   11.8203   -3.5069    0.0000 O   0  0  0  0  0  0  0  0  0  0  0  0
    4.0079   -1.6235    0.0000 C   0  0  0  0  0  0  0  0  0  0  0  0
    2.5684   -1.2017    0.0000 C   0  0  0  0  0  0  0  0  0  0  0  0
    1.1289   -0.7799    0.0000 C   0  0  0  0  0  0  0  0  0  0  0  0
   -0.3105   -0.3582    0.0000 C   0  0  0  0  0  0  0  0  0  0  0  0
   -1.7500    0.0636    0.0000 C   0  0  0  0  0  0  0  0  0  0  0  0
   -3.1895    0.4854    0.0000 C   0  0  0  0  0  0  0  0  0  0  0  0
   -4.6290    0.9072    0.0000 C   0  0  0  0  0  0  0  0  0  0  0  0
   -6.0685    1.3289    0.0000 C   0  0  0  0  0  0  0  0  0  0  0  0
   -7.5079    1.7507    0.0000 C   0  0  0  0  0  0  0  0  0  0  0  0
   -8.9474    2.1725    0.0000 S   0  0  0  0  0  0  0  0  0  0  0  0
   -9.3019    3.6300    0.0000 O   0  0  0  0  0  0  0  0  0  0  0  0
  -10.0324    1.1368    0.0000 C   0  0  0  0  0  0  0  0  0  0  0  0
  -11.1174    0.1010    0.0000 C   0  0  0  0  0  0  0  0  0  0  0  0
  -12.2024   -0.9347    0.0000 C   0  0  0  0  0  0  0  0  0  0  0  0
  -13.2875   -1.9705    0.0000 C   0  0  0  0  0  0  0  0  0  0  0  0
  -14.3725   -3.0062    0.0000 C   0  0  0  0  0  0  0  0  0  0  0  0
  -15.4575   -4.0419    0.0000 F   0  0  0  0  0  0  0  0  0  0  0  0
  -15.4082   -1.9212    0.0000 F   0  0  0  0  0  0  0  0  0  0  0  0
  -13.3367   -4.0912    0.0000 F   0  0  0  0  0  0  0  0  0  0  0  0
  -12.2517   -3.0555    0.0000 F   0  0  0  0  0  0  0  0  0  0  0  0
  -14.3232   -0.8855    0.0000 F   0  0  0  0  0  0  0  0  0  0  0  0
    3.0785    3.3337    0.0000 H   0  0  0  0  0  0  0  0  0  0  0  0
    6.0784    3.3164    0.0000 H   0  0  0  0  0  0  0  0  0  0  0  0
    4.5871    4.8251    0.0000 H   0  0  0  0  0  0  0  0  0  0  0  0
    7.0286    3.4630    0.0000 H   0  0  0  0  0  0  0  0  0  0  0  0
    5.4388    3.8398    0.0000 H   0  0  0  0  0  0  0  0  0  0  0  0
    8.6322    1.2955    0.0000 H   0  0  0  0  0  0  0  0  0  0  0  0
    7.8173    2.8830    0.0000 H   0  0  0  0  0  0  0  0  0  0  0  0
    8.4236    0.4780    0.0000 H   0  0  0  0  0  0  0  0  0  0  0  0
    4.1758   -0.9846    0.0000 H   0  0  0  0  0  0  0  0  0  0  0  0
    5.7077    1.0767    0.0000 H   0  0  0  0  0  0  0  0  0  0  0  0
    2.8481   -1.4666    0.0000 H   0  0  0  0  0  0  0  0  0  0  0  0
    1.4567   -0.2210    0.0000 H   0  0  0  0  0  0  0  0  0  0  0  0
    0.8768    0.6146    0.0000 H   0  0  0  0  0  0  0  0  0  0  0  0
    1.1957    2.4547    0.0000 H   0  0  0  0  0  0  0  0  0  0  0  0
    1.9946    3.3318    0.0000 H   0  0  0  0  0  0  0  0  0  0  0  0
    3.2180    5.0411    0.0000 H   0  0  0  0  0  0  0  0  0  0  0  0
    4.7821   -3.3896    0.0000 H   0  0  0  0  0  0  0  0  0  0  0  0
    7.4874   -4.1823    0.0000 H   0  0  0  0  0  0  0  0  0  0  0  0
    5.5708   -3.9697    0.0000 H   0  0  0  0  0  0  0  0  0  0  0  0
    9.7342    1.2521    0.0000 H   0  0  0  0  0  0  0  0  0  0  0  0
   12.1511   -0.5252    0.0000 H   0  0  0  0  0  0  0  0  0  0  0  0
    9.0726   -4.7113    0.0000 H   0  0  0  0  0  0  0  0  0  0  0  0
   11.6549   -4.9978    0.0000 H   0  0  0  0  0  0  0  0  0  0  0  0
    3.5861   -3.0630    0.0000 H   0  0  0  0  0  0  0  0  0  0  0  0
    4.0688   -0.1247    0.0000 H   0  0  0  0  0  0  0  0  0  0  0  0
    2.1466   -2.6412    0.0000 H   0  0  0  0  0  0  0  0  0  0  0  0
    2.6293    0.2970    0.0000 H   0  0  0  0  0  0  0  0  0  0  0  0
    0.7072   -2.2194    0.0000 H   0  0  0  0  0  0  0  0  0  0  0  0
    1.3721    0.7002    0.0000 H   0  0  0  0  0  0  0  0  0  0  0  0
   -0.7323   -1.7976    0.0000 H   0  0  0  0  0  0  0  0  0  0  0  0
    0.1112    1.0813    0.0000 H   0  0  0  0  0  0  0  0  0  0  0  0
   -2.1718   -1.3759    0.0000 H   0  0  0  0  0  0  0  0  0  0  0  0
   -1.3282    1.5031    0.0000 H   0  0  0  0  0  0  0  0  0  0  0  0
   -2.7677    1.9249    0.0000 H   0  0  0  0  0  0  0  0  0  0  0  0
   -3.6113   -0.9541    0.0000 H   0  0  0  0  0  0  0  0  0  0  0  0
   -5.0508   -0.5323    0.0000 H   0  0  0  0  0  0  0  0  0  0  0  0
   -4.2072    2.3466    0.0000 H   0  0  0  0  0  0  0  0  0  0  0  0
   -5.6467    2.7684    0.0000 H   0  0  0  0  0  0  0  0  0  0  0  0
   -6.4902   -0.1105    0.0000 H   0  0  0  0  0  0  0  0  0  0  0  0
   -7.9297    0.3112    0.0000 H   0  0  0  0  0  0  0  0  0  0  0  0
   -7.0862    3.1902    0.0000 H   0  0  0  0  0  0  0  0  0  0  0  0
  -11.0682    2.2218    0.0000 H   0  0  0  0  0  0  0  0  0  0  0  0
   -8.9967    0.0517    0.0000 H   0  0  0  0  0  0  0  0  0  0  0  0
  -10.0817   -0.9840    0.0000 H   0  0  0  0  0  0  0  0  0  0  0  0
  -12.1532    1.1860    0.0000 H   0  0  0  0  0  0  0  0  0  0  0  0
  -11.1667   -2.0197    0.0000 H   0  0  0  0  0  0  0  0  0  0  0  0
  -13.2382    0.1503    0.0000 H   0  0  0  0  0  0  0  0  0  0  0  0
  1 42  1  0
  1 43  1  0
  1 44  1  0
  2  1  1  6
  2  3  1  0
  2  7  1  0
  2 10  1  0
  3  4  1  0
  3 45  1  0
  3 46  1  0
  4  5  1  0
  4 47  1  0
  4 48  1  0
  5  6  1  0
  5 15  1  0
  5 49  1  1
  6  7  1  0
  6 12  1  0
  6 50  1  6
  7  8  1  0
  7 51  1  1
  8  9  1  0
  8 52  1  0
  8 53  1  0
  9 10  1  0
  9 54  1  0
  9 55  1  0
 10 11  1  0
 10 56  1  1
 11 57  1  0
 12 13  1  0
 12 58  1  6
 12 21  1  0
 13 14  1  0
 13 59  1  0
 13 60  1  0
 14 15  2  0
 14 19  1  0
 15 16  1  0
 16 17  2  0
 16 61  1  0
 17 18  1  0
 17 62  1  0
 18 19  2  0
 18 20  1  0
 19 63  1  0
 20 64  1  0
 21 22  1  0
 21 65  1  0
 21 66  1  0
 22 23  1  0
 22 67  1  0
 22 68  1  0
 23 24  1  0
 23 69  1  0
 23 70  1  0
 24 25  1  0
 24 71  1  0
 24 72  1  0
 25 26  1  0
 25 73  1  0
 25 74  1  0
 26 27  1  0
 26 75  1  0
 26 76  1  0
 27 28  1  0
 27 77  1  0
 27 78  1  0
 28 29  1  0
 28 79  1  0
 28 80  1  0
 30 29  1  6
 29 81  1  0
 29 82  1  0
 30 31  2  0
 30 32  1  0
 32 33  1  0
 32 83  1  0
 32 84  1  0
 33 34  1  0
 33 85  1  0
 33 86  1  0
 34 35  1  0
 34 87  1  0
 34 88  1  0
 35 36  1  0
 35 40  1  0
 35 41  1  0
 36 37  1  0
 36 38  1  0
 36 39  1  0
M  END
$$$$

     RDKit          2D

 74 77  0  0  0  0  0  0  0  0999 V2000
    8.0657   -3.1237    0.0000 C   0  0  0  0  0  0  0  0  0  0  0  0
    8.8977   -1.8756    0.0000 C   0  0  0  0  0  0  0  0  0  0  0  0
    8.2329   -0.5310    0.0000 N   0  0  0  0  0  0  0  0  0  0  0  0
    9.0650    0.7170    0.0000 C   0  0  0  0  0  0  0  0  0  0  0  0
    8.4001    2.0617    0.0000 C   0  0  0  0  0  0  0  0  0  0  0  0
    9.2322    3.3097    0.0000 C   0  0  0  0  0  0  0  0  0  0  0  0
   10.7291    3.2132    0.0000 C   0  0  0  0  0  0  0  0  0  0  0  0
   11.3939    1.8686    0.0000 C   0  0  0  0  0  0  0  0  0  0  0  0
   10.5618    0.6205    0.0000 C   0  0  0  0  0  0  0  0  0  0  0  0
   11.2267   -0.7241    0.0000 C   0  0  0  0  0  0  0  0  0  0  0  0
   10.3946   -1.9722    0.0000 C   0  0  0  0  0  0  0  0  0  0  0  0
   12.7236   -0.8207    0.0000 N   0  0  0  0  0  0  0  0  0  0  0  0
    6.7360   -0.4345    0.0000 C   0  0  0  0  0  0  0  0  0  0  0  0
    5.2391   -0.3379    0.0000 C   0  0  0  0  0  0  0  0  0  0  0  0
    3.7422   -0.2414    0.0000 C   0  0  0  0  0  0  0  0  0  0  0  0
    2.2453   -0.1448    0.0000 C   0  0  0  0  0  0  0  0  0  0  0  0
    0.7484   -0.0483    0.0000 C   0  0  0  0  0  0  0  0  0  0  0  0
   -0.7484    0.0483    0.0000 C   0  0  0  0  0  0  0  0  0  0  0  0
   -2.2453    0.1448    0.0000 C   0  0  0  0  0  0  0  0  0  0  0  0
   -3.7422    0.2414    0.0000 C   0  0  0  0  0  0  0  0  0  0  0  0
   -5.2391    0.3379    0.0000 C   0  0  0  0  0  0  0  0  0  0  0  0
   -6.7360    0.4345    0.0000 C   0  0  0  0  0  0  0  0  0  0  0  0
   -8.2329    0.5310    0.0000 N   0  0  0  0  0  0  0  0  0  0  0  0
   -8.8977    1.8756    0.0000 C   0  0  0  0  0  0  0  0  0  0  0  0
  -10.3946    1.9722    0.0000 C   0  0  0  0  0  0  0  0  0  0  0  0
  -11.2267    0.7241    0.0000 C   0  0  0  0  0  0  0  0  0  0  0  0
  -10.5618   -0.6205    0.0000 C   0  0  0  0  0  0  0  0  0  0  0  0
  -11.3939   -1.8686    0.0000 C   0  0  0  0  0  0  0  0  0  0  0  0
  -10.7291   -3.2132    0.0000 C   0  0  0  0  0  0  0  0  0  0  0  0
   -9.2322   -3.3097    0.0000 C   0  0  0  0  0  0  0  0  0  0  0  0
   -8.4001   -2.0617    0.0000 C   0  0  0  0  0  0  0  0  0  0  0  0
   -9.0650   -0.7170    0.0000 C   0  0  0  0  0  0  0  0  0  0  0  0
  -12.7236    0.8207    0.0000 N   0  0  0  0  0  0  0  0  0  0  0  0
   -8.0657    3.1237    0.0000 C   0  0  0  0  0  0  0  0  0  0  0  0
    6.9801   -2.5780    0.0000 H   0  0  0  0  0  0  0  0  0  0  0  0
    9.3137   -3.9558    0.0000 H   0  0  0  0  0  0  0  0  0  0  0  0
    7.2336   -4.3718    0.0000 H   0  0  0  0  0  0  0  0  0  0  0  0
    6.9032    2.1582    0.0000 H   0  0  0  0  0  0  0  0  0  0  0  0
    8.5674    4.6543    0.0000 H   0  0  0  0  0  0  0  0  0  0  0  0
   11.5611    4.4612    0.0000 H   0  0  0  0  0  0  0  0  0  0  0  0
   12.8908    1.7720    0.0000 H   0  0  0  0  0  0  0  0  0  0  0  0
   11.0594   -3.3168    0.0000 H   0  0  0  0  0  0  0  0  0  0  0  0
   13.3884   -2.1653    0.0000 H   0  0  0  0  0  0  0  0  0  0  0  0
   13.5556    0.4274    0.0000 H   0  0  0  0  0  0  0  0  0  0  0  0
    6.5106   -1.6284    0.0000 H   0  0  0  0  0  0  0  0  0  0  0  0
    6.8326    1.0624    0.0000 H   0  0  0  0  0  0  0  0  0  0  0  0
    5.3357    1.1590    0.0000 H   0  0  0  0  0  0  0  0  0  0  0  0
    5.1426   -1.8348    0.0000 H   0  0  0  0  0  0  0  0  0  0  0  0
    3.6457   -1.7383    0.0000 H   0  0  0  0  0  0  0  0  0  0  0  0
    3.8388    1.2555    0.0000 H   0  0  0  0  0  0  0  0  0  0  0  0
    2.3419    1.3521    0.0000 H   0  0  0  0  0  0  0  0  0  0  0  0
    2.1488   -1.6417    0.0000 H   0  0  0  0  0  0  0  0  0  0  0  0
    0.6519   -1.5452    0.0000 H   0  0  0  0  0  0  0  0  0  0  0  0
    0.8450    1.4486    0.0000 H   0  0  0  0  0  0  0  0  0  0  0  0
   -0.8450   -1.4486    0.0000 H   0  0  0  0  0  0  0  0  0  0  0  0
   -0.6519    1.5452    0.0000 H   0  0  0  0  0  0  0  0  0  0  0  0
   -2.1488    1.6417    0.0000 H   0  0  0  0  0  0  0  0  0  0  0  0
   -2.3419   -1.3521    0.0000 H   0  0  0  0  0  0  0  0  0  0  0  0
   -3.8388   -1.2555    0.0000 H   0  0  0  0  0  0  0  0  0  0  0  0
   -3.6457    1.7383    0.0000 H   0  0  0  0  0  0  0  0  0  0  0  0
   -5.1426    1.8348    0.0000 H   0  0  0  0  0  0  0  0  0  0  0  0
   -5.3357   -1.1590    0.0000 H   0  0  0  0  0  0  0  0  0  0  0  0
   -6.8326   -1.0624    0.0000 H   0  0  0  0  0  0  0  0  0  0  0  0
   -6.5106    1.6284    0.0000 H   0  0  0  0  0  0  0  0  0  0  0  0
  -11.0594    3.3168    0.0000 H   0  0  0  0  0  0  0  0  0  0  0  0
  -12.8908   -1.7720    0.0000 H   0  0  0  0  0  0  0  0  0  0  0  0
  -11.5611   -4.4612    0.0000 H   0  0  0  0  0  0  0  0  0  0  0  0
   -8.5674   -4.6543    0.0000 H   0  0  0  0  0  0  0  0  0  0  0  0
   -6.9032   -2.1582    0.0000 H   0  0  0  0  0  0  0  0  0  0  0  0
  -13.3884    2.1653    0.0000 H   0  0  0  0  0  0  0  0  0  0  0  0
  -13.5556   -0.4274    0.0000 H   0  0  0  0  0  0  0  0  0  0  0  0
   -9.3137    3.9558    0.0000 H   0  0  0  0  0  0  0  0  0  0  0  0
   -6.9801    2.5780    0.0000 H   0  0  0  0  0  0  0  0  0  0  0  0
   -7.2336    4.3718    0.0000 H   0  0  0  0  0  0  0  0  0  0  0  0
  1  2  1  0
  1 35  1  0
  1 36  1  0
  1 37  1  0
  2  3  2  0
  2 11  1  0
  3  4  1  0
  3 13  1  0
  4  5  2  0
  4  9  1  0
  5  6  1  0
  5 38  1  0
  6  7  2  0
  6 39  1  0
  7  8  1  0
  7 40  1  0
  8  9  2  0
  8 41  1  0
  9 10  1  0
 10 11  2  0
 10 12  1  0
 11 42  1  0
 12 43  1  0
 12 44  1  0
 13 14  1  0
 13 45  1  0
 13 46  1  0
 14 15  1  0
 14 47  1  0
 14 48  1  0
 15 16  1  0
 15 49  1  0
 15 50  1  0
 16 17  1  0
 16 51  1  0
 16 52  1  0
 17 18  1  0
 17 53  1  0
 17 54  1  0
 18 19  1  0
 18 55  1  0
 18 56  1  0
 19 20  1  0
 19 57  1  0
 19 58  1  0
 20 21  1  0
 20 59  1  0
 20 60  1  0
 21 22  1  0
 21 61  1  0
 21 62  1  0
 22 23  1  0
 22 63  1  0
 22 64  1  0
 23 24  2  0
 23 32  1  0
 24 25  1  0
 24 34  1  0
 25 26  2  0
 25 65  1  0
 26 27  1  0
 26 33  1  0
 27 28  1  0
 27 32  2  0
 28 29  2  0
 28 66  1  0
 29 30  1  0
 29 67  1  0
 30 31  2  0
 30 68  1  0
 31 32  1  0
 31 69  1  0
 33 70  1  0
 33 71  1  0
 34 72  1  0
 34 73  1  0
 34 74  1  0
M  CHG  2   3   1  23   1
M  END
$$$$

     RDKit          2D

 67 71  0  0  1  0  0  0  0  0999 V2000
    1.2560   -6.5975    0.0000 C   0  0  0  0  0  0  0  0  0  0  0  0
    1.5559   -5.1278    0.0000 C   0  0  0  0  0  0  0  0  0  0  0  0
    0.0564   -5.0877    0.0000 C   0  0  0  0  0  0  0  0  0  0  0  0
   -0.6585   -3.7690    0.0000 C   0  0  0  0  0  0  0  0  0  0  0  0
    0.1260   -2.4905    0.0000 C   0  0  0  0  0  0  0  0  0  0  0  0
    1.6254   -2.5307    0.0000 C   0  0  0  0  0  0  0  0  0  0  0  0
    2.3404   -3.8493    0.0000 O   0  0  0  0  0  0  0  0  0  0  0  0
    1.4046   -1.0470    0.0000 O   0  0  0  0  0  0  0  0  0  0  0  0
    2.5791   -0.1140    0.0000 C   0  0  0  0  0  0  0  0  0  0  0  0
    4.0018    0.3612    0.0000 C   0  0  0  0  0  0  0  0  0  0  0  0
    4.3018    1.8309    0.0000 C   0  0  0  0  0  0  0  0  0  0  0  0
    3.1789    2.8255    0.0000 C   0  0  0  0  0  0  0  0  0  0  0  0
    1.7561    2.3503    0.0000 C   0  0  0  0  0  0  0  0  0  0  0  0
    1.4562    0.8806    0.0000 C   0  0  0  0  0  0  0  0  0  0  0  0
    0.0335    0.4055    0.0000 C   0  0  0  0  0  0  0  0  0  0  0  0
   -1.0894    1.4001    0.0000 C   0  0  0  0  0  0  0  0  0  0  0  0
   -0.7895    2.8698    0.0000 C   0  0  0  0  0  0  0  0  0  0  0  0
    0.6333    3.3449    0.0000 C   0  0  0  0  0  0  0  0  0  0  0  0
    0.9332    4.8147    0.0000 O   0  0  0  0  0  0  0  0  0  0  0  0
   -1.9123    3.8644    0.0000 C   0  0  0  0  0  0  0  0  0  0  0  0
   -1.6124    5.3341    0.0000 O   0  0  0  0  0  0  0  0  0  0  0  0
   -3.3351    3.3893    0.0000 C   0  0  0  0  0  0  0  0  0  0  0  0
   -3.6350    1.9196    0.0000 C   0  0  0  0  0  0  0  0  0  0  0  0
   -2.5122    0.9250    0.0000 C   0  0  0  0  0  0  0  0  0  0  0  0
   -2.8121   -0.5447    0.0000 O   0  0  0  0  0  0  0  0  0  0  0  0
   -5.0578    1.4445    0.0000 C   0  0  0  0  0  0  0  0  0  0  0  0
   -6.1806    2.4391    0.0000 C   0  0  0  0  0  0  0  0  0  0  0  0
   -5.8807    3.9088    0.0000 C   0  0  0  0  0  0  0  0  0  0  0  0
   -4.4579    4.3839    0.0000 C   0  0  0  0  0  0  0  0  0  0  0  0
   -5.3577   -0.0252    0.0000 O   0  0  0  0  0  0  0  0  0  0  0  0
   -6.7805   -0.5004    0.0000 C   0  0  0  0  0  0  0  0  0  0  0  0
   -0.2665   -1.0642    0.0000 O   0  0  0  0  0  0  0  0  0  0  0  0
    5.0863    3.1094    0.0000 C   0  0  0  0  0  0  0  0  0  0  0  0
    4.5374    4.5053    0.0000 O   0  0  0  0  0  0  0  0  0  0  0  0
    6.5857    3.0692    0.0000 C   0  0  0  0  0  0  0  0  0  0  0  0
    5.6971    1.2803    0.0000 O   0  0  0  0  0  0  0  0  0  0  0  0
   -1.7814   -2.7744    0.0000 N   0  0  0  0  0  0  0  0  0  0  0  0
   -1.3663   -5.5628    0.0000 O   0  0  0  0  0  0  0  0  0  0  0  0
    2.7257   -6.8975    0.0000 H   0  0  0  0  0  0  0  0  0  0  0  0
    0.4613   -6.5346    0.0000 H   0  0  0  0  0  0  0  0  0  0  0  0
    0.9561   -8.0673    0.0000 H   0  0  0  0  0  0  0  0  0  0  0  0
    2.9512   -5.6784    0.0000 H   0  0  0  0  0  0  0  0  0  0  0  0
    0.0768   -5.8846    0.0000 H   0  0  0  0  0  0  0  0  0  0  0  0
   -1.9380   -4.5520    0.0000 H   0  0  0  0  0  0  0  0  0  0  0  0
   -1.2693   -1.9400    0.0000 H   0  0  0  0  0  0  0  0  0  0  0  0
    0.7726   -1.1371    0.0000 H   0  0  0  0  0  0  0  0  0  0  0  0
    3.0955   -2.2325    0.0000 H   0  0  0  0  0  0  0  0  0  0  0  0
    3.4494   -1.3356    0.0000 H   0  0  0  0  0  0  0  0  0  0  0  0
    5.5013    0.3210    0.0000 H   0  0  0  0  0  0  0  0  0  0  0  0
    4.2227   -1.1225    0.0000 H   0  0  0  0  0  0  0  0  0  0  0  0
    2.4639    4.1441    0.0000 H   0  0  0  0  0  0  0  0  0  0  0  0
    4.2309    3.8948    0.0000 H   0  0  0  0  0  0  0  0  0  0  0  0
   -0.1896    5.8092    0.0000 H   0  0  0  0  0  0  0  0  0  0  0  0
   -7.6034    1.9639    0.0000 H   0  0  0  0  0  0  0  0  0  0  0  0
   -7.0035    4.9034    0.0000 H   0  0  0  0  0  0  0  0  0  0  0  0
   -4.1580    5.8536    0.0000 H   0  0  0  0  0  0  0  0  0  0  0  0
   -6.3053   -1.9231    0.0000 H   0  0  0  0  0  0  0  0  0  0  0  0
   -7.2556    0.9224    0.0000 H   0  0  0  0  0  0  0  0  0  0  0  0
   -8.2032   -0.9755    0.0000 H   0  0  0  0  0  0  0  0  0  0  0  0
   -1.7619   -1.1809    0.0000 H   0  0  0  0  0  0  0  0  0  0  0  0
    6.6259    4.5687    0.0000 H   0  0  0  0  0  0  0  0  0  0  0  0
    7.0857    1.6550    0.0000 H   0  0  0  0  0  0  0  0  0  0  0  0
    8.0852    3.0291    0.0000 H   0  0  0  0  0  0  0  0  0  0  0  0
    6.9765    2.0633    0.0000 H   0  0  0  0  0  0  0  0  0  0  0  0
   -3.2041   -3.2496    0.0000 H   0  0  0  0  0  0  0  0  0  0  0  0
   -1.8460   -1.2758    0.0000 H   0  0  0  0  0  0  0  0  0  0  0  0
   -2.6020   -4.7125    0.0000 H   0  0  0  0  0  0  0  0  0  0  0  0
  1 39  1  0
  1 40  1  0
  1 41  1  0
  2  3  1  0
  2  7  1  0
  2 42  1  6
  2  1  1  0
  3  4  1  0
  3 43  1  6
  3 38  1  0
  4  5  1  0
  4 44  1  6
  4 37  1  0
  5  6  1  0
  5 45  1  0
  5 46  1  0
  6  7  1  0
  6  8  1  0
  6 47  1  1
  9 10  1  0
  9 14  1  0
  9 48  1  1
  9  8  1  0
 10 11  1  0
 10 49  1  0
 10 50  1  0
 11 12  1  0
 11 33  1  0
 11 36  1  6
 12 13  1  0
 12 51  1  0
 12 52  1  0
 13 14  2  0
 13 18  1  0
 14 15  1  0
 15 16  2  0
 15 32  1  0
 16 17  1  0
 16 24  1  0
 17 18  2  0
 17 20  1  0
 18 19  1  0
 19 53  1  0
 20 21  2  0
 20 22  1  0
 22 23  2  0
 22 29  1  0
 23 24  1  0
 23 26  1  0
 24 25  2  0
 26 27  2  0
 26 30  1  0
 27 28  1  0
 27 54  1  0
 28 29  2  0
 28 55  1  0
 29 56  1  0
 30 31  1  0
 31 57  1  0
 31 58  1  0
 31 59  1  0
 32 60  1  0
 33 34  2  0
 33 35  1  0
 35 61  1  0
 35 62  1  0
 35 63  1  0
 36 64  1  0
 37 65  1  0
 37 66  1  0
 38 67  1  0
M  END
$$$$

     RDKit          2D

 45 49  0  0  0  0  0  0  0  0999 V2000
   -4.3080    1.1866    0.0000 C   0  0  0  0  0  0  0  0  0  0  0  0
   -4.4757   -0.3040    0.0000 C   0  0  0  0  0  0  0  0  0  0  0  0
   -3.2687   -1.1946    0.0000 N   0  0  0  0  0  0  0  0  0  0  0  0
   -1.8940   -0.5946    0.0000 C   0  0  0  0  0  0  0  0  0  0  0  0
   -1.7262    0.8960    0.0000 C   0  0  0  0  0  0  0  0  0  0  0  0
   -2.9332    1.7866    0.0000 C   0  0  0  0  0  0  0  0  0  0  0  0
   -2.9750    0.9642    0.0000 C   0  0  0  0  0  0  0  0  0  0  0  0
   -3.1267   -0.3835    0.0000 C   0  0  0  0  0  0  0  0  0  0  0  0
   -0.2874    0.4719    0.0000 C   0  0  0  0  0  0  0  0  0  0  0  0
    1.1514    0.0479    0.0000 N   0  0  0  0  0  0  0  0  0  0  0  0
    1.5036   -1.4102    0.0000 C   0  0  0  0  0  0  0  0  0  0  0  0
    0.4169   -2.4442    0.0000 C   0  0  0  0  0  0  0  0  0  0  0  0
    0.7691   -3.9023    0.0000 C   0  0  0  0  0  0  0  0  0  0  0  0
    2.2079   -4.3264    0.0000 C   0  0  0  0  0  0  0  0  0  0  0  0
    3.2946   -3.2923    0.0000 C   0  0  0  0  0  0  0  0  0  0  0  0
    2.9424   -1.8343    0.0000 C   0  0  0  0  0  0  0  0  0  0  0  0
    4.0291   -0.8002    0.0000 S   0  0  0  0  0  0  0  0  0  0  0  0
    3.6769    0.6578    0.0000 C   0  0  0  0  0  0  0  0  0  0  0  0
    4.7636    1.6918    0.0000 C   0  0  0  0  0  0  0  0  0  0  0  0
    4.4114    3.1499    0.0000 C   0  0  0  0  0  0  0  0  0  0  0  0
    2.9726    3.5740    0.0000 C   0  0  0  0  0  0  0  0  0  0  0  0
    1.8859    2.5400    0.0000 C   0  0  0  0  0  0  0  0  0  0  0  0
    2.2381    1.0819    0.0000 C   0  0  0  0  0  0  0  0  0  0  0  0
   -4.6601    2.6447    0.0000 H   0  0  0  0  0  0  0  0  0  0  0  0
   -5.8050    1.0930    0.0000 H   0  0  0  0  0  0  0  0  0  0  0  0
   -5.9145    0.1201    0.0000 H   0  0  0  0  0  0  0  0  0  0  0  0
   -5.1432   -1.6473    0.0000 H   0  0  0  0  0  0  0  0  0  0  0  0
   -1.9051   -2.0946    0.0000 H   0  0  0  0  0  0  0  0  0  0  0  0
   -0.4187   -0.8660    0.0000 H   0  0  0  0  0  0  0  0  0  0  0  0
   -1.0388    0.4923    0.0000 H   0  0  0  0  0  0  0  0  0  0  0  0
   -0.8999    2.1479    0.0000 H   0  0  0  0  0  0  0  0  0  0  0  0
   -2.7654    3.2772    0.0000 H   0  0  0  0  0  0  0  0  0  0  0  0
   -1.2274    2.3107    0.0000 H   0  0  0  0  0  0  0  0  0  0  0  0
   -1.5418   -2.0527    0.0000 H   0  0  0  0  0  0  0  0  0  0  0  0
   -0.3969   -0.5010    0.0000 H   0  0  0  0  0  0  0  0  0  0  0  0
    0.1367    1.9107    0.0000 H   0  0  0  0  0  0  0  0  0  0  0  0
   -0.3507   -1.0267    0.0000 H   0  0  0  0  0  0  0  0  0  0  0  0
   -1.0817   -2.3809    0.0000 H   0  0  0  0  0  0  0  0  0  0  0  0
   -0.3175   -4.9363    0.0000 H   0  0  0  0  0  0  0  0  0  0  0  0
    2.5601   -5.7844    0.0000 H   0  0  0  0  0  0  0  0  0  0  0  0
    4.7334   -3.7164    0.0000 H   0  0  0  0  0  0  0  0  0  0  0  0
    6.2024    1.2678    0.0000 H   0  0  0  0  0  0  0  0  0  0  0  0
    5.4980    4.1839    0.0000 H   0  0  0  0  0  0  0  0  0  0  0  0
    2.6204    5.0321    0.0000 H   0  0  0  0  0  0  0  0  0  0  0  0
    0.4471    2.9640    0.0000 H   0  0  0  0  0  0  0  0  0  0  0  0
  1  2  1  0
  1  6  1  0
  1 24  1  0
  1 25  1  0
  2  3  1  0
  2 26  1  0
  2 27  1  0
  3  4  1  0
  3  8  1  0
  4  5  1  0
  4 28  1  0
  4 29  1  0
  5  6  1  0
  5 30  1  0
  5 31  1  0
  6  7  1  0
  6 32  1  0
  7  8  1  0
  7  9  1  0
  7 33  1  6
  8 34  1  0
  8 35  1  0
  9 10  1  0
  9 36  1  0
  9 37  1  0
 10 11  1  0
 10 23  1  0
 11 12  2  0
 11 16  1  0
 12 13  1  0
 12 38  1  0
 13 14  2  0
 13 39  1  0
 14 15  1  0
 14 40  1  0
 15 16  2  0
 15 41  1  0
 16 17  1  0
 17 18  1  0
 18 19  2  0
 18 23  1  0
 19 20  1  0
 19 42  1  0
 20 21  2  0
 20 43  1  0
 21 22  1  0
 21 44  1  0
 22 23  2  0
 22 45  1  0
M  END
$$$$

     RDKit          2D

 33 34  0  0  0  0  0  0  0  0999 V2000
   -0.0893   -1.4767    0.0000 C   0  0  0  0  0  0  0  0  0  0  0  0
    0.0101    0.0200    0.0000 C   0  0  0  0  0  0  0  0  0  0  0  0
    0.1095    1.5167    0.0000 C   0  0  0  0  0  0  0  0  0  0  0  0
    1.5068   -0.0794    0.0000 C   0  0  0  0  0  0  0  0  0  0  0  0
    2.3412    1.1671    0.0000 C   0  0  0  0  0  0  0  0  0  0  0  0
    3.8379    1.0677    0.0000 C   0  0  0  0  0  0  0  0  0  0  0  0
    4.5002   -0.2782    0.0000 C   0  0  0  0  0  0  0  0  0  0  0  0
    3.6658   -1.5247    0.0000 C   0  0  0  0  0  0  0  0  0  0  0  0
    2.1691   -1.4253    0.0000 C   0  0  0  0  0  0  0  0  0  0  0  0
    4.3280   -2.8706    0.0000 Br  0  0  0  0  0  0  0  0  0  0  0  0
    5.9969   -0.3776    0.0000 O   0  0  0  0  0  0  0  0  0  0  0  0
    4.6724    2.3141    0.0000 Br  0  0  0  0  0  0  0  0  0  0  0  0
   -1.4866    0.1194    0.0000 C   0  0  0  0  0  0  0  0  0  0  0  0
   -2.1489    1.4653    0.0000 C   0  0  0  0  0  0  0  0  0  0  0  0
   -3.6456    1.5647    0.0000 C   0  0  0  0  0  0  0  0  0  0  0  0
   -4.4800    0.3182    0.0000 C   0  0  0  0  0  0  0  0  0  0  0  0
   -3.8177   -1.0277    0.0000 C   0  0  0  0  0  0  0  0  0  0  0  0
   -2.3210   -1.1271    0.0000 C   0  0  0  0  0  0  0  0  0  0  0  0
   -4.6522   -2.2741    0.0000 Br  0  0  0  0  0  0  0  0  0  0  0  0
   -5.9767    0.4176    0.0000 O   0  0  0  0  0  0  0  0  0  0  0  0
   -4.3078    2.9106    0.0000 Br  0  0  0  0  0  0  0  0  0  0  0  0
    0.7540   -1.7475    0.0000 H   0  0  0  0  0  0  0  0  0  0  0  0
   -1.5656   -1.7424    0.0000 H   0  0  0  0  0  0  0  0  0  0  0  0
   -0.1887   -2.9734    0.0000 H   0  0  0  0  0  0  0  0  0  0  0  0
   -0.7338    1.7875    0.0000 H   0  0  0  0  0  0  0  0  0  0  0  0
    0.9812    1.6736    0.0000 H   0  0  0  0  0  0  0  0  0  0  0  0
    0.2089    3.0134    0.0000 H   0  0  0  0  0  0  0  0  0  0  0  0
    1.9502    1.9618    0.0000 H   0  0  0  0  0  0  0  0  0  0  0  0
    1.6763   -2.1613    0.0000 H   0  0  0  0  0  0  0  0  0  0  0  0
    6.8314    0.8689    0.0000 H   0  0  0  0  0  0  0  0  0  0  0  0
   -1.6561    2.2013    0.0000 H   0  0  0  0  0  0  0  0  0  0  0  0
   -1.6588   -2.4730    0.0000 H   0  0  0  0  0  0  0  0  0  0  0  0
   -6.8111   -0.8289    0.0000 H   0  0  0  0  0  0  0  0  0  0  0  0
  1  2  1  0
  1 22  1  0
  1 23  1  0
  1 24  1  0
  2  3  1  0
  2  4  1  0
  2 13  1  0
  3 25  1  0
  3 26  1  0
  3 27  1  0
  4  5  2  0
  4  9  1  0
  5  6  1  0
  5 28  1  0
  6  7  2  0
  6 12  1  0
  7  8  1  0
  7 11  1  0
  8  9  2  0
  8 10  1  0
  9 29  1  0
 11 30  1  0
 13 14  2  0
 13 18  1  0
 14 15  1  0
 14 31  1  0
 15 16  2  0
 15 21  1  0
 16 17  1  0
 16 20  1  0
 17 18  2  0
 17 19  1  0
 18 32  1  0
 20 33  1  0
M  END
$$$$

     RDKit          2D

 52 54  0  0  0  0  0  0  0  0999 V2000
    6.0796    4.4447    0.0000 C   0  0  0  0  0  0  0  0  0  0  0  0
    5.5507    3.0411    0.0000 O   0  0  0  0  0  0  0  0  0  0  0  0
    4.0706    2.7973    0.0000 C   0  0  0  0  0  0  0  0  0  0  0  0
    2.5906    2.5535    0.0000 C   0  0  0  0  0  0  0  0  0  0  0  0
    1.1105    2.3097    0.0000 O   0  0  0  0  0  0  0  0  0  0  0  0
    0.5816    0.9060    0.0000 C   0  0  0  0  0  0  0  0  0  0  0  0
    1.5328   -0.2539    0.0000 C   0  0  0  0  0  0  0  0  0  0  0  0
    1.0039   -1.6575    0.0000 C   0  0  0  0  0  0  0  0  0  0  0  0
   -0.4761   -1.9013    0.0000 C   0  0  0  0  0  0  0  0  0  0  0  0
   -1.4273   -0.7415    0.0000 C   0  0  0  0  0  0  0  0  0  0  0  0
   -0.8984    0.6622    0.0000 C   0  0  0  0  0  0  0  0  0  0  0  0
   -2.9074   -0.9853    0.0000 C   0  0  0  0  0  0  0  0  0  0  0  0
   -3.4362   -2.3889    0.0000 N   0  0  0  0  0  0  0  0  0  0  0  0
   -2.4851   -3.5488    0.0000 C   0  0  0  0  0  0  0  0  0  0  0  0
   -1.0050   -3.3050    0.0000 N   0  0  0  0  0  0  0  0  0  0  0  0
   -3.8585    0.1746    0.0000 N   0  0  0  0  0  0  0  0  0  0  0  0
   -5.3386   -0.0692    0.0000 C   0  0  0  0  0  0  0  0  0  0  0  0
   -5.8675   -1.4729    0.0000 C   0  0  0  0  0  0  0  0  0  0  0  0
   -7.3475   -1.7167    0.0000 C   0  0  0  0  0  0  0  0  0  0  0  0
   -8.2987   -0.5568    0.0000 C   0  0  0  0  0  0  0  0  0  0  0  0
   -7.7698    0.8468    0.0000 C   0  0  0  0  0  0  0  0  0  0  0  0
   -6.2898    1.0906    0.0000 C   0  0  0  0  0  0  0  0  0  0  0  0
   -8.7210    2.0067    0.0000 C   0  0  0  0  0  0  0  0  0  0  0  0
   -9.6721    3.1666    0.0000 C   0  0  0  0  0  0  0  0  0  0  0  0
    3.0129   -0.0101    0.0000 O   0  0  0  0  0  0  0  0  0  0  0  0
    3.9640   -1.1699    0.0000 C   0  0  0  0  0  0  0  0  0  0  0  0
    4.9152   -2.3298    0.0000 C   0  0  0  0  0  0  0  0  0  0  0  0
    5.8664   -3.4897    0.0000 O   0  0  0  0  0  0  0  0  0  0  0  0
    7.3464   -3.2459    0.0000 C   0  0  0  0  0  0  0  0  0  0  0  0
    7.4832    3.9158    0.0000 H   0  0  0  0  0  0  0  0  0  0  0  0
    4.6759    4.9736    0.0000 H   0  0  0  0  0  0  0  0  0  0  0  0
    6.6085    5.8484    0.0000 H   0  0  0  0  0  0  0  0  0  0  0  0
    3.8268    4.2773    0.0000 H   0  0  0  0  0  0  0  0  0  0  0  0
    4.3144    1.3172    0.0000 H   0  0  0  0  0  0  0  0  0  0  0  0
    2.3468    4.0335    0.0000 H   0  0  0  0  0  0  0  0  0  0  0  0
    2.8344    1.0734    0.0000 H   0  0  0  0  0  0  0  0  0  0  0  0
    1.9551   -2.8174    0.0000 H   0  0  0  0  0  0  0  0  0  0  0  0
   -1.8496    1.8221    0.0000 H   0  0  0  0  0  0  0  0  0  0  0  0
   -3.0140   -4.9525    0.0000 H   0  0  0  0  0  0  0  0  0  0  0  0
   -3.3296    1.5782    0.0000 H   0  0  0  0  0  0  0  0  0  0  0  0
   -4.9163   -2.6328    0.0000 H   0  0  0  0  0  0  0  0  0  0  0  0
   -7.8764   -3.1204    0.0000 H   0  0  0  0  0  0  0  0  0  0  0  0
   -9.7787   -0.8006    0.0000 H   0  0  0  0  0  0  0  0  0  0  0  0
   -5.7609    2.4943    0.0000 H   0  0  0  0  0  0  0  0  0  0  0  0
  -10.6233    4.3264    0.0000 H   0  0  0  0  0  0  0  0  0  0  0  0
    5.1239   -0.2188    0.0000 H   0  0  0  0  0  0  0  0  0  0  0  0
    2.8042   -2.1211    0.0000 H   0  0  0  0  0  0  0  0  0  0  0  0
    6.0750   -1.3786    0.0000 H   0  0  0  0  0  0  0  0  0  0  0  0
    3.7553   -3.2810    0.0000 H   0  0  0  0  0  0  0  0  0  0  0  0
    7.5902   -4.7259    0.0000 H   0  0  0  0  0  0  0  0  0  0  0  0
    7.1026   -1.7658    0.0000 H   0  0  0  0  0  0  0  0  0  0  0  0
    8.8265   -3.0020    0.0000 H   0  0  0  0  0  0  0  0  0  0  0  0
  1  2  1  0
  1 30  1  0
  1 31  1  0
  1 32  1  0
  2  3  1  0
  3  4  1  0
  3 33  1  0
  3 34  1  0
  4  5  1  0
  4 35  1  0
  4 36  1  0
  5  6  1  0
  6  7  2  0
  6 11  1  0
  7  8  1  0
  7 25  1  0
  8  9  2  0
  8 37  1  0
  9 10  1  0
  9 15  1  0
 10 11  2  0
 10 12  1  0
 11 38  1  0
 12 13  2  0
 12 16  1  0
 13 14  1  0
 14 15  2  0
 14 39  1  0
 16 17  1  0
 16 40  1  0
 17 18  2  0
 17 22  1  0
 18 19  1  0
 18 41  1  0
 19 20  2  0
 19 42  1  0
 20 21  1  0
 20 43  1  0
 21 22  2  0
 21 23  1  0
 22 44  1  0
 23 24  3  0
 24 45  1  0
 25 26  1  0
 26 27  1  0
 26 46  1  0
 26 47  1  0
 27 28  1  0
 27 48  1  0
 27 49  1  0
 28 29  1  0
 29 50  1  0
 29 51  1  0
 29 52  1  0
M  END
$$$$

     RDKit          2D

 36 39  0  0  0  0  0  0  0  0999 V2000
    2.0492   -2.9932    0.0000 C   0  0  0  0  0  0  0  0  0  0  0  0
    1.4776   -1.6064    0.0000 C   0  0  0  0  0  0  0  0  0  0  0  0
   -0.0092   -1.4080    0.0000 C   0  0  0  0  0  0  0  0  0  0  0  0
   -0.9244   -2.5965    0.0000 C   0  0  0  0  0  0  0  0  0  0  0  0
   -2.4112   -2.3981    0.0000 C   0  0  0  0  0  0  0  0  0  0  0  0
   -2.9829   -1.0113    0.0000 C   0  0  0  0  0  0  0  0  0  0  0  0
   -4.4697   -0.8129    0.0000 C   0  0  0  0  0  0  0  0  0  0  0  0
   -5.0413    0.5739    0.0000 C   0  0  0  0  0  0  0  0  0  0  0  0
   -4.1261    1.7624    0.0000 C   0  0  0  0  0  0  0  0  0  0  0  0
   -2.6393    1.5640    0.0000 C   0  0  0  0  0  0  0  0  0  0  0  0
   -2.0676    0.1772    0.0000 C   0  0  0  0  0  0  0  0  0  0  0  0
   -0.5808   -0.0212    0.0000 C   0  0  0  0  0  0  0  0  0  0  0  0
    0.3344    1.1672    0.0000 C   0  0  0  0  0  0  0  0  0  0  0  0
    1.8212    0.9688    0.0000 C   0  0  0  0  0  0  0  0  0  0  0  0
    2.7364    2.1573    0.0000 C   0  0  0  0  0  0  0  0  0  0  0  0
    4.2233    1.9589    0.0000 C   0  0  0  0  0  0  0  0  0  0  0  0
    4.7949    0.5721    0.0000 C   0  0  0  0  0  0  0  0  0  0  0  0
    3.8797   -0.6164    0.0000 C   0  0  0  0  0  0  0  0  0  0  0  0
    2.3928   -0.4180    0.0000 C   0  0  0  0  0  0  0  0  0  0  0  0
   -0.2372    2.5540    0.0000 C   0  0  0  0  0  0  0  0  0  0  0  0
    0.6624   -3.5648    0.0000 H   0  0  0  0  0  0  0  0  0  0  0  0
    3.4360   -2.4216    0.0000 H   0  0  0  0  0  0  0  0  0  0  0  0
    2.6208   -4.3800    0.0000 H   0  0  0  0  0  0  0  0  0  0  0  0
   -0.3528   -3.9833    0.0000 H   0  0  0  0  0  0  0  0  0  0  0  0
   -3.3265   -3.5865    0.0000 H   0  0  0  0  0  0  0  0  0  0  0  0
   -5.3849   -2.0013    0.0000 H   0  0  0  0  0  0  0  0  0  0  0  0
   -6.5281    0.7723    0.0000 H   0  0  0  0  0  0  0  0  0  0  0  0
   -4.6977    3.1492    0.0000 H   0  0  0  0  0  0  0  0  0  0  0  0
   -2.0173    2.1946    0.0000 H   0  0  0  0  0  0  0  0  0  0  0  0
    2.1648    3.5441    0.0000 H   0  0  0  0  0  0  0  0  0  0  0  0
    5.1385    3.1473    0.0000 H   0  0  0  0  0  0  0  0  0  0  0  0
    6.2817    0.3737    0.0000 H   0  0  0  0  0  0  0  0  0  0  0  0
    4.4513   -2.0032    0.0000 H   0  0  0  0  0  0  0  0  0  0  0  0
   -1.0089    2.1192    0.0000 H   0  0  0  0  0  0  0  0  0  0  0  0
    1.1496    3.1256    0.0000 H   0  0  0  0  0  0  0  0  0  0  0  0
   -0.8088    3.9409    0.0000 H   0  0  0  0  0  0  0  0  0  0  0  0
  1  2  1  0
  1 21  1  0
  1 22  1  0
  1 23  1  0
  2  3  2  0
  2 19  1  0
  3  4  1  0
  3 12  1  0
  4  5  2  0
  4 24  1  0
  5  6  1  0
  5 25  1  0
  6  7  1  0
  6 11  2  0
  7  8  2  0
  7 26  1  0
  8  9  1  0
  8 27  1  0
  9 10  2  0
  9 28  1  0
 10 11  1  0
 10 29  1  0
 11 12  1  0
 12 13  2  0
 13 14  1  0
 13 20  1  0
 14 15  1  0
 14 19  2  0
 15 16  2  0
 15 30  1  0
 16 17  1  0
 16 31  1  0
 17 18  2  0
 17 32  1  0
 18 19  1  0
 18 33  1  0
 20 34  1  0
 20 35  1  0
 20 36  1  0
M  END
$$$$

     RDKit          2D

 34 34  0  0  0  0  0  0  0  0999 V2000
   -3.5786   -3.2288    0.0000 C   0  0  0  0  0  0  0  0  0  0  0  0
   -3.1792   -1.7830    0.0000 C   0  0  0  0  0  0  0  0  0  0  0  0
   -2.7797   -0.3372    0.0000 O   0  0  0  0  0  0  0  0  0  0  0  0
   -1.3278    0.0398    0.0000 P   0  0  0  0  0  0  0  0  0  0  0  0
   -2.3802    1.1086    0.0000 O   0  0  0  0  0  0  0  0  0  0  0  0
   -0.9283    1.4856    0.0000 O   0  0  0  0  0  0  0  0  0  0  0  0
   -1.9807    2.5545    0.0000 C   0  0  0  0  0  0  0  0  0  0  0  0
   -3.0331    3.6233    0.0000 C   0  0  0  0  0  0  0  0  0  0  0  0
    0.1241    0.4167    0.0000 O   0  0  0  0  0  0  0  0  0  0  0  0
    1.1764   -0.6522    0.0000 C   0  0  0  0  0  0  0  0  0  0  0  0
    0.7769   -2.0980    0.0000 C   0  0  0  0  0  0  0  0  0  0  0  0
    1.8293   -3.1669    0.0000 Cl  0  0  0  0  0  0  0  0  0  0  0  0
    2.6283   -0.2752    0.0000 C   0  0  0  0  0  0  0  0  0  0  0  0
    3.6807   -1.3441    0.0000 C   0  0  0  0  0  0  0  0  0  0  0  0
    5.1325   -0.9671    0.0000 C   0  0  0  0  0  0  0  0  0  0  0  0
    5.5320    0.4787    0.0000 C   0  0  0  0  0  0  0  0  0  0  0  0
    4.4796    1.5476    0.0000 C   0  0  0  0  0  0  0  0  0  0  0  0
    3.0278    1.1706    0.0000 C   0  0  0  0  0  0  0  0  0  0  0  0
    6.9839    0.8556    0.0000 Cl  0  0  0  0  0  0  0  0  0  0  0  0
    3.2812   -2.7899    0.0000 Cl  0  0  0  0  0  0  0  0  0  0  0  0
   -2.1328   -3.6283    0.0000 H   0  0  0  0  0  0  0  0  0  0  0  0
   -5.0245   -2.8294    0.0000 H   0  0  0  0  0  0  0  0  0  0  0  0
   -3.9781   -4.6747    0.0000 H   0  0  0  0  0  0  0  0  0  0  0  0
   -4.6250   -1.3835    0.0000 H   0  0  0  0  0  0  0  0  0  0  0  0
   -1.7333   -2.1825    0.0000 H   0  0  0  0  0  0  0  0  0  0  0  0
   -3.2725    1.7920    0.0000 H   0  0  0  0  0  0  0  0  0  0  0  0
   -0.9118    3.6068    0.0000 H   0  0  0  0  0  0  0  0  0  0  0  0
   -1.9642    4.6757    0.0000 H   0  0  0  0  0  0  0  0  0  0  0  0
   -4.1020    2.5710    0.0000 H   0  0  0  0  0  0  0  0  0  0  0  0
   -4.0855    4.6922    0.0000 H   0  0  0  0  0  0  0  0  0  0  0  0
   -0.6749   -2.4749    0.0000 H   0  0  0  0  0  0  0  0  0  0  0  0
    6.1849   -2.0360    0.0000 H   0  0  0  0  0  0  0  0  0  0  0  0
    4.8791    2.9934    0.0000 H   0  0  0  0  0  0  0  0  0  0  0  0
    1.9754    2.2395    0.0000 H   0  0  0  0  0  0  0  0  0  0  0  0
  1  2  1  0
  1 21  1  0
  1 22  1  0
  1 23  1  0
  2  3  1  0
  2 24  1  0
  2 25  1  0
  3  4  1  0
  4  5  2  0
  4  6  1  0
  4  9  1  0
  6  7  1  0
  7  8  1  0
  7 26  1  0
  7 27  1  0
  8 28  1  0
  8 29  1  0
  8 30  1  0
  9 10  1  0
 10 11  2  0
 10 13  1  0
 11 12  1  0
 11 31  1  0
 13 14  2  0
 13 18  1  0
 14 15  1  0
 14 20  1  0
 15 16  2  0
 15 32  1  0
 16 17  1  0
 16 19  1  0
 17 18  2  0
 17 33  1  0
 18 34  1  0
M  END
$$$$

     RDKit          2D

 78 78  0  0  0  0  0  0  0  0999 V2000
  -10.6614    0.0008    0.0000 C   0  0  0  0  0  0  0  0  0  0  0  0
   -9.1614    0.0023    0.0000 C   0  0  0  0  0  0  0  0  0  0  0  0
   -7.6614    0.0038    0.0000 C   0  0  0  0  0  0  0  0  0  0  0  0
   -6.1614    0.0053    0.0000 C   0  0  0  0  0  0  0  0  0  0  0  0
   -4.6614    0.0068    0.0000 C   0  0  0  0  0  0  0  0  0  0  0  0
   -3.1614    0.0083    0.0000 C   0  0  0  0  0  0  0  0  0  0  0  0
   -1.6614    0.0098    0.0000 C   0  0  0  0  0  0  0  0  0  0  0  0
   -0.1614    0.0112    0.0000 N   0  0  0  0  0  0  0  0  0  0  0  0
   -0.1629    1.5112    0.0000 C   0  0  0  0  0  0  0  0  0  0  0  0
   -0.1644    3.0112    0.0000 C   0  0  0  0  0  0  0  0  0  0  0  0
   -0.1599   -1.4888    0.0000 C   0  0  0  0  0  0  0  0  0  0  0  0
   -0.1584   -2.9887    0.0000 C   0  0  0  0  0  0  0  0  0  0  0  0
    1.3386    0.0127    0.0000 C   0  0  0  0  0  0  0  0  0  0  0  0
    2.8386    0.0142    0.0000 C   0  0  0  0  0  0  0  0  0  0  0  0
    4.3386    0.0157    0.0000 C   0  0  0  0  0  0  0  0  0  0  0  0
    5.8386    0.0172    0.0000 C   0  0  0  0  0  0  0  0  0  0  0  0
    7.3386    0.0187    0.0000 C   0  0  0  0  0  0  0  0  0  0  0  0
    8.0873    1.3185    0.0000 C   0  0  0  0  0  0  0  0  0  0  0  0
    9.5873    1.3200    0.0000 C   0  0  0  0  0  0  0  0  0  0  0  0
   10.3386    0.0217    0.0000 C   0  0  0  0  0  0  0  0  0  0  0  0
    9.5899   -1.2781    0.0000 C   0  0  0  0  0  0  0  0  0  0  0  0
    8.0899   -1.2796    0.0000 C   0  0  0  0  0  0  0  0  0  0  0  0
   11.8386    0.0232    0.0000 Cl  0  0  0  0  0  0  0  0  0  0  0  0
    3.0000    8.1093    0.0000 C   0  0  0  0  0  0  0  0  0  0  0  0
    1.5000    8.1093    0.0000 C   0  0  0  0  0  0  0  0  0  0  0  0
    0.7500    6.8103    0.0000 C   0  0  0  0  0  0  0  0  0  0  0  0
   -0.7500    6.8103    0.0000 C   0  0  0  0  0  0  0  0  0  0  0  0
   -1.5000    8.1093    0.0000 C   0  0  0  0  0  0  0  0  0  0  0  0
   -0.7500    9.4084    0.0000 C   0  0  0  0  0  0  0  0  0  0  0  0
    0.7500    9.4084    0.0000 C   0  0  0  0  0  0  0  0  0  0  0  0
   -3.0000    8.1093    0.0000 S   0  0  0  0  0  0  0  0  0  0  0  0
   -3.0000    9.6093    0.0000 O   0  0  0  0  0  0  0  0  0  0  0  0
   -3.0000    6.6093    0.0000 O   0  0  0  0  0  0  0  0  0  0  0  0
   -4.5000    8.1093    0.0000 O   0  0  0  0  0  0  0  0  0  0  0  0
  -10.6599   -1.4992    0.0000 H   0  0  0  0  0  0  0  0  0  0  0  0
  -10.6629    1.5008    0.0000 H   0  0  0  0  0  0  0  0  0  0  0  0
  -12.1614   -0.0007    0.0000 H   0  0  0  0  0  0  0  0  0  0  0  0
   -9.1629    1.5023    0.0000 H   0  0  0  0  0  0  0  0  0  0  0  0
   -9.1599   -1.4977    0.0000 H   0  0  0  0  0  0  0  0  0  0  0  0
   -7.6599   -1.4962    0.0000 H   0  0  0  0  0  0  0  0  0  0  0  0
   -7.6629    1.5038    0.0000 H   0  0  0  0  0  0  0  0  0  0  0  0
   -6.1629    1.5053    0.0000 H   0  0  0  0  0  0  0  0  0  0  0  0
   -6.1599   -1.4947    0.0000 H   0  0  0  0  0  0  0  0  0  0  0  0
   -4.6599   -1.4932    0.0000 H   0  0  0  0  0  0  0  0  0  0  0  0
   -4.6629    1.5068    0.0000 H   0  0  0  0  0  0  0  0  0  0  0  0
   -3.1629    1.5083    0.0000 H   0  0  0  0  0  0  0  0  0  0  0  0
   -3.1599   -1.4917    0.0000 H   0  0  0  0  0  0  0  0  0  0  0  0
   -1.7685   -0.8695    0.0000 H   0  0  0  0  0  0  0  0  0  0  0  0
   -1.7703    0.8888    0.0000 H   0  0  0  0  0  0  0  0  0  0  0  0
    0.7161    1.6201    0.0000 H   0  0  0  0  0  0  0  0  0  0  0  0
   -1.0421    1.6183    0.0000 H   0  0  0  0  0  0  0  0  0  0  0  0
    1.3356    3.0127    0.0000 H   0  0  0  0  0  0  0  0  0  0  0  0
   -1.6644    3.0098    0.0000 H   0  0  0  0  0  0  0  0  0  0  0  0
   -0.1659    4.5112    0.0000 H   0  0  0  0  0  0  0  0  0  0  0  0
   -1.0390   -1.5976    0.0000 H   0  0  0  0  0  0  0  0  0  0  0  0
    1.3291   -1.6701    0.0000 H   0  0  0  0  0  0  0  0  0  0  0  0
   -1.6584   -2.9902    0.0000 H   0  0  0  0  0  0  0  0  0  0  0  0
    1.3416   -2.9873    0.0000 H   0  0  0  0  0  0  0  0  0  0  0  0
   -0.1569   -4.4887    0.0000 H   0  0  0  0  0  0  0  0  0  0  0  0
    1.4457    0.8920    0.0000 H   0  0  0  0  0  0  0  0  0  0  0  0
    1.5229   -1.4759    0.0000 H   0  0  0  0  0  0  0  0  0  0  0  0
    2.8401   -1.4858    0.0000 H   0  0  0  0  0  0  0  0  0  0  0  0
    2.8371    1.5142    0.0000 H   0  0  0  0  0  0  0  0  0  0  0  0
    4.3371    1.5157    0.0000 H   0  0  0  0  0  0  0  0  0  0  0  0
    4.3401   -1.4843    0.0000 H   0  0  0  0  0  0  0  0  0  0  0  0
    5.8371    1.5172    0.0000 H   0  0  0  0  0  0  0  0  0  0  0  0
    5.8401   -1.4828    0.0000 H   0  0  0  0  0  0  0  0  0  0  0  0
    7.3360    2.6168    0.0000 H   0  0  0  0  0  0  0  0  0  0  0  0
   10.3360    2.6198    0.0000 H   0  0  0  0  0  0  0  0  0  0  0  0
   10.3412   -2.5764    0.0000 H   0  0  0  0  0  0  0  0  0  0  0  0
    7.3412   -2.5794    0.0000 H   0  0  0  0  0  0  0  0  0  0  0  0
    3.0000    6.6093    0.0000 H   0  0  0  0  0  0  0  0  0  0  0  0
    3.0000    9.6093    0.0000 H   0  0  0  0  0  0  0  0  0  0  0  0
    4.5000    8.1093    0.0000 H   0  0  0  0  0  0  0  0  0  0  0  0
    1.5000    5.5112    0.0000 H   0  0  0  0  0  0  0  0  0  0  0  0
   -1.5000    5.5112    0.0000 H   0  0  0  0  0  0  0  0  0  0  0  0
   -1.5000   10.7074    0.0000 H   0  0  0  0  0  0  0  0  0  0  0  0
    1.5000   10.7074    0.0000 H   0  0  0  0  0  0  0  0  0  0  0  0
  1  2  1  0
  1 35  1  0
  1 36  1  0
  1 37  1  0
  2  3  1  0
  2 38  1  0
  2 39  1  0
  3  4  1  0
  3 40  1  0
  3 41  1  0
  4  5  1  0
  4 42  1  0
  4 43  1  0
  5  6  1  0
  5 44  1  0
  5 45  1  0
  6  7  1  0
  6 46  1  0
  6 47  1  0
  7  8  1  0
  7 48  1  0
  7 49  1  0
  8  9  1  0
  8 11  1  0
  8 13  1  0
  9 10  1  0
  9 50  1  0
  9 51  1  0
 10 52  1  0
 10 53  1  0
 10 54  1  0
 11 12  1  0
 11 55  1  0
 11 56  1  0
 12 57  1  0
 12 58  1  0
 12 59  1  0
 13 14  1  0
 13 60  1  0
 13 61  1  0
 14 15  1  0
 14 62  1  0
 14 63  1  0
 15 16  1  0
 15 64  1  0
 15 65  1  0
 16 17  1  0
 16 66  1  0
 16 67  1  0
 17 18  2  0
 17 22  1  0
 18 19  1  0
 18 68  1  0
 19 20  2  0
 19 69  1  0
 20 21  1  0
 20 23  1  0
 21 22  2  0
 21 70  1  0
 22 71  1  0
 24 25  1  0
 24 72  1  0
 24 73  1  0
 24 74  1  0
 25 26  2  0
 25 30  1  0
 26 27  1  0
 26 75  1  0
 27 28  2  0
 27 76  1  0
 28 29  1  0
 28 31  1  0
 29 30  2  0
 29 77  1  0
 30 78  1  0
 31 32  2  0
 31 33  2  0
 31 34  1  0
M  CHG  2   8   1  34  -1
M  END
$$$$

     RDKit          2D

 44 45  0  0  0  0  0  0  0  0999 V2000
    5.9534   -1.5822    0.0000 C   0  0  0  0  0  0  0  0  0  0  0  0
    4.4751   -1.3281    0.0000 C   0  0  0  0  0  0  0  0  0  0  0  0
    3.9561    0.0793    0.0000 C   0  0  0  0  0  0  0  0  0  0  0  0
    4.9153    1.2324    0.0000 C   0  0  0  0  0  0  0  0  0  0  0  0
    6.3936    0.9783    0.0000 C   0  0  0  0  0  0  0  0  0  0  0  0
    6.9127   -0.4290    0.0000 C   0  0  0  0  0  0  0  0  0  0  0  0
    8.3910   -0.6832    0.0000 Cl  0  0  0  0  0  0  0  0  0  0  0  0
    4.3963    2.6398    0.0000 Cl  0  0  0  0  0  0  0  0  0  0  0  0
    2.4778    0.3334    0.0000 C   0  0  0  0  0  0  0  0  0  0  0  0
    0.9994    0.5876    0.0000 O   0  0  0  0  0  0  0  0  0  0  0  0
    0.0402   -0.5656    0.0000 N   0  0  0  0  0  0  0  0  0  0  0  0
   -1.4381   -0.3114    0.0000 C   0  0  0  0  0  0  0  0  0  0  0  0
   -1.9572    1.0959    0.0000 C   0  0  0  0  0  0  0  0  0  0  0  0
   -2.4762    2.5032    0.0000 N   0  0  0  0  0  0  0  0  0  0  0  0
   -3.9199    2.9105    0.0000 C   0  0  0  0  0  0  0  0  0  0  0  0
   -3.9786    4.4094    0.0000 C   0  0  0  0  0  0  0  0  0  0  0  0
   -2.5713    4.9284    0.0000 N   0  0  0  0  0  0  0  0  0  0  0  0
   -1.6428    3.7504    0.0000 C   0  0  0  0  0  0  0  0  0  0  0  0
   -2.3974   -1.4646    0.0000 C   0  0  0  0  0  0  0  0  0  0  0  0
   -3.8757   -1.2105    0.0000 C   0  0  0  0  0  0  0  0  0  0  0  0
   -4.8350   -2.3636    0.0000 C   0  0  0  0  0  0  0  0  0  0  0  0
   -4.3159   -3.7710    0.0000 C   0  0  0  0  0  0  0  0  0  0  0  0
   -2.8376   -4.0251    0.0000 C   0  0  0  0  0  0  0  0  0  0  0  0
   -1.8783   -2.8720    0.0000 C   0  0  0  0  0  0  0  0  0  0  0  0
   -5.2752   -4.9242    0.0000 Cl  0  0  0  0  0  0  0  0  0  0  0  0
   -4.3947    0.1969    0.0000 Cl  0  0  0  0  0  0  0  0  0  0  0  0
    0.5196    7.7428    0.0000 N   0  0  0  0  0  0  0  0  0  0  0  0
    0.5196    6.2428    0.0000 O   0  0  0  0  0  0  0  0  0  0  0  0
   -0.7794    8.4928    0.0000 O   0  0  0  0  0  0  0  0  0  0  0  0
    1.8187    8.4928    0.0000 O   0  0  0  0  0  0  0  0  0  0  0  0
    6.4725   -2.9896    0.0000 H   0  0  0  0  0  0  0  0  0  0  0  0
    3.5159   -2.4812    0.0000 H   0  0  0  0  0  0  0  0  0  0  0  0
    7.3529    2.1315    0.0000 H   0  0  0  0  0  0  0  0  0  0  0  0
    2.2236   -1.1449    0.0000 H   0  0  0  0  0  0  0  0  0  0  0  0
    2.7319    1.8117    0.0000 H   0  0  0  0  0  0  0  0  0  0  0  0
   -3.3645    0.5768    0.0000 H   0  0  0  0  0  0  0  0  0  0  0  0
   -0.5498    1.6149    0.0000 H   0  0  0  0  0  0  0  0  0  0  0  0
   -5.0979    1.9820    0.0000 H   0  0  0  0  0  0  0  0  0  0  0  0
   -5.2258    5.2428    0.0000 H   0  0  0  0  0  0  0  0  0  0  0  0
   -0.1439    3.8091    0.0000 H   0  0  0  0  0  0  0  0  0  0  0  0
   -6.3133   -2.1095    0.0000 H   0  0  0  0  0  0  0  0  0  0  0  0
   -2.3186   -5.4325    0.0000 H   0  0  0  0  0  0  0  0  0  0  0  0
   -0.4000   -3.1261    0.0000 H   0  0  0  0  0  0  0  0  0  0  0  0
   -2.0785    7.7428    0.0000 H   0  0  0  0  0  0  0  0  0  0  0  0
  1  2  2  0
  1  6  1  0
  1 31  1  0
  2  3  1  0
  2 32  1  0
  3  4  2  0
  3  9  1  0
  4  5  1  0
  4  8  1  0
  5  6  2  0
  5 33  1  0
  6  7  1  0
  9 10  1  0
  9 34  1  0
  9 35  1  0
 10 11  1  0
 11 12  2  0
 12 13  1  0
 12 19  1  0
 13 14  1  0
 13 36  1  0
 13 37  1  0
 14 15  1  0
 14 18  1  0
 15 16  2  0
 15 38  1  0
 16 17  1  0
 16 39  1  0
 17 18  2  0
 18 40  1  0
 19 20  2  0
 19 24  1  0
 20 21  1  0
 20 26  1  0
 21 22  2  0
 21 41  1  0
 22 23  1  0
 22 25  1  0
 23 24  2  0
 23 42  1  0
 24 43  1  0
 27 28  2  0
 27 29  1  0
 27 30  1  0
 29 44  1  0
M  CHG  2  27   1  30  -1
M  END
$$$$

     RDKit          2D

 77 80  0  0  0  0  0  0  0  0999 V2000
   -7.9563    1.0373    0.0000 C   0  0  0  0  0  0  0  0  0  0  0  0
   -6.4687    1.2298    0.0000 C   0  0  0  0  0  0  0  0  0  0  0  0
   -5.4385    0.1394    0.0000 C   0  0  0  0  0  0  0  0  0  0  0  0
   -4.0832    0.7822    0.0000 N   0  0  0  0  0  0  0  0  0  0  0  0
   -4.2757    2.2698    0.0000 C   0  0  0  0  0  0  0  0  0  0  0  0
   -5.7500    2.5464    0.0000 C   0  0  0  0  0  0  0  0  0  0  0  0
   -6.2476    3.9615    0.0000 C   0  0  0  0  0  0  0  0  0  0  0  0
   -5.2709    5.0999    0.0000 C   0  0  0  0  0  0  0  0  0  0  0  0
   -3.7966    4.8233    0.0000 C   0  0  0  0  0  0  0  0  0  0  0  0
   -3.2991    3.4083    0.0000 C   0  0  0  0  0  0  0  0  0  0  0  0
   -5.7685    6.5150    0.0000 O   0  0  0  0  0  0  0  0  0  0  0  0
   -2.7666    0.0636    0.0000 C   0  0  0  0  0  0  0  0  0  0  0  0
   -1.4500   -0.6551    0.0000 C   0  0  0  0  0  0  0  0  0  0  0  0
   -1.4140   -2.1546    0.0000 C   0  0  0  0  0  0  0  0  0  0  0  0
   -0.0974   -2.8733    0.0000 C   0  0  0  0  0  0  0  0  0  0  0  0
    1.1833   -2.0924    0.0000 C   0  0  0  0  0  0  0  0  0  0  0  0
    1.1474   -0.5928    0.0000 C   0  0  0  0  0  0  0  0  0  0  0  0
   -0.1693    0.1259    0.0000 C   0  0  0  0  0  0  0  0  0  0  0  0
    2.5000   -2.8110    0.0000 O   0  0  0  0  0  0  0  0  0  0  0  0
    3.7807   -2.0301    0.0000 C   0  0  0  0  0  0  0  0  0  0  0  0
    5.0613   -1.2492    0.0000 C   0  0  0  0  0  0  0  0  0  0  0  0
    6.3420   -0.4682    0.0000 N   0  0  0  0  0  0  0  0  0  0  0  0
    6.1941    1.0245    0.0000 C   0  0  0  0  0  0  0  0  0  0  0  0
    7.2689    2.0708    0.0000 C   0  0  0  0  0  0  0  0  0  0  0  0
    8.7571    1.8828    0.0000 C   0  0  0  0  0  0  0  0  0  0  0  0
    9.5380    0.6021    0.0000 C   0  0  0  0  0  0  0  0  0  0  0  0
    9.0236   -0.8069    0.0000 C   0  0  0  0  0  0  0  0  0  0  0  0
    7.6013   -1.2833    0.0000 C   0  0  0  0  0  0  0  0  0  0  0  0
   -5.7151   -1.3348    0.0000 C   0  0  0  0  0  0  0  0  0  0  0  0
   -7.1302   -1.8324    0.0000 C   0  0  0  0  0  0  0  0  0  0  0  0
   -7.4068   -3.3067    0.0000 C   0  0  0  0  0  0  0  0  0  0  0  0
   -6.2684   -4.2834    0.0000 C   0  0  0  0  0  0  0  0  0  0  0  0
   -4.8533   -3.7858    0.0000 C   0  0  0  0  0  0  0  0  0  0  0  0
   -4.5767   -2.3115    0.0000 C   0  0  0  0  0  0  0  0  0  0  0  0
   -6.5450   -5.7577    0.0000 O   0  0  0  0  0  0  0  0  0  0  0  0
    1.0348   10.5399    0.0000 C   0  0  0  0  0  0  0  0  0  0  0  0
   -0.4030   10.1124    0.0000 C   0  0  0  0  0  0  0  0  0  0  0  0
   -0.7517    8.6535    0.0000 O   0  0  0  0  0  0  0  0  0  0  0  0
   -1.4922   11.1438    0.0000 O   0  0  0  0  0  0  0  0  0  0  0  0
   -7.9484   -0.1777    0.0000 H   0  0  0  0  0  0  0  0  0  0  0  0
   -8.1488    2.5249    0.0000 H   0  0  0  0  0  0  0  0  0  0  0  0
   -9.4439    0.8448    0.0000 H   0  0  0  0  0  0  0  0  0  0  0  0
   -7.7219    4.2381    0.0000 H   0  0  0  0  0  0  0  0  0  0  0  0
   -2.8200    5.9618    0.0000 H   0  0  0  0  0  0  0  0  0  0  0  0
   -1.8248    3.1317    0.0000 H   0  0  0  0  0  0  0  0  0  0  0  0
   -4.7918    7.6535    0.0000 H   0  0  0  0  0  0  0  0  0  0  0  0
   -3.2144   -1.0659    0.0000 H   0  0  0  0  0  0  0  0  0  0  0  0
   -2.0480    1.3802    0.0000 H   0  0  0  0  0  0  0  0  0  0  0  0
   -2.6947   -2.9356    0.0000 H   0  0  0  0  0  0  0  0  0  0  0  0
   -0.0614   -4.3729    0.0000 H   0  0  0  0  0  0  0  0  0  0  0  0
    2.4281    0.1881    0.0000 H   0  0  0  0  0  0  0  0  0  0  0  0
   -0.2052    1.6254    0.0000 H   0  0  0  0  0  0  0  0  0  0  0  0
    4.5616   -3.3108    0.0000 H   0  0  0  0  0  0  0  0  0  0  0  0
    2.9997   -0.7494    0.0000 H   0  0  0  0  0  0  0  0  0  0  0  0
    4.1301   -0.0732    0.0000 H   0  0  0  0  0  0  0  0  0  0  0  0
    5.6803   -2.6155    0.0000 H   0  0  0  0  0  0  0  0  0  0  0  0
    4.7243    0.7250    0.0000 H   0  0  0  0  0  0  0  0  0  0  0  0
    5.2629    2.2004    0.0000 H   0  0  0  0  0  0  0  0  0  0  0  0
    6.1184    3.0332    0.0000 H   0  0  0  0  0  0  0  0  0  0  0  0
    7.6077    3.5320    0.0000 H   0  0  0  0  0  0  0  0  0  0  0  0
    8.7922    3.3824    0.0000 H   0  0  0  0  0  0  0  0  0  0  0  0
   10.1108    2.5290    0.0000 H   0  0  0  0  0  0  0  0  0  0  0  0
   10.7324    1.5096    0.0000 H   0  0  0  0  0  0  0  0  0  0  0  0
   10.8872   -0.0533    0.0000 H   0  0  0  0  0  0  0  0  0  0  0  0
   10.4778   -1.1749    0.0000 H   0  0  0  0  0  0  0  0  0  0  0  0
    9.3524   -2.2704    0.0000 H   0  0  0  0  0  0  0  0  0  0  0  0
    8.2203   -2.6496    0.0000 H   0  0  0  0  0  0  0  0  0  0  0  0
    6.6620   -2.4528    0.0000 H   0  0  0  0  0  0  0  0  0  0  0  0
   -8.1419   -1.1596    0.0000 H   0  0  0  0  0  0  0  0  0  0  0  0
   -8.8219   -3.8043    0.0000 H   0  0  0  0  0  0  0  0  0  0  0  0
   -3.7148   -4.7625    0.0000 H   0  0  0  0  0  0  0  0  0  0  0  0
   -3.3899   -2.0512    0.0000 H   0  0  0  0  0  0  0  0  0  0  0  0
   -5.4065   -6.7343    0.0000 H   0  0  0  0  0  0  0  0  0  0  0  0
    1.4623    9.1021    0.0000 H   0  0  0  0  0  0  0  0  0  0  0  0
    0.6073   11.9777    0.0000 H   0  0  0  0  0  0  0  0  0  0  0  0
    2.4726   10.9674    0.0000 H   0  0  0  0  0  0  0  0  0  0  0  0
   -2.9299   10.7163    0.0000 H   0  0  0  0  0  0  0  0  0  0  0  0
  1  2  1  0
  1 40  1  0
  1 41  1  0
  1 42  1  0
  2  3  2  0
  2  6  1  0
  3  4  1  0
  3 29  1  0
  4  5  1  0
  4 12  1  0
  5  6  2  0
  5 10  1  0
  6  7  1  0
  7  8  2  0
  7 43  1  0
  8  9  1  0
  8 11  1  0
  9 10  2  0
  9 44  1  0
 10 45  1  0
 11 46  1  0
 12 13  1  0
 12 47  1  0
 12 48  1  0
 13 14  2  0
 13 18  1  0
 14 15  1  0
 14 49  1  0
 15 16  2  0
 15 50  1  0
 16 17  1  0
 16 19  1  0
 17 18  2  0
 17 51  1  0
 18 52  1  0
 19 20  1  0
 20 21  1  0
 20 53  1  0
 20 54  1  0
 21 22  1  0
 21 55  1  0
 21 56  1  0
 22 23  1  0
 22 28  1  0
 23 24  1  0
 23 57  1  0
 23 58  1  0
 24 25  1  0
 24 59  1  0
 24 60  1  0
 25 26  1  0
 25 61  1  0
 25 62  1  0
 26 27  1  0
 26 63  1  0
 26 64  1  0
 27 28  1  0
 27 65  1  0
 27 66  1  0
 28 67  1  0
 28 68  1  0
 29 30  2  0
 29 34  1  0
 30 31  1  0
 30 69  1  0
 31 32  2  0
 31 70  1  0
 32 33  1  0
 32 35  1  0
 33 34  2  0
 33 71  1  0
 34 72  1  0
 35 73  1  0
 36 37  1  0
 36 74  1  0
 36 75  1  0
 36 76  1  0
 37 38  2  0
 37 39  1  0
 39 77  1  0
M  END
$$$$

     RDKit          2D

 49 52  0  0  0  0  0  0  0  0999 V2000
    0.4550   -1.4439    0.0000 C   0  0  0  0  0  0  0  0  0  0  0  0
    0.0098   -0.0115    0.0000 C   0  0  0  0  0  0  0  0  0  0  0  0
   -0.4355    1.4209    0.0000 C   0  0  0  0  0  0  0  0  0  0  0  0
    1.4422    0.4337    0.0000 C   0  0  0  0  0  0  0  0  0  0  0  0
    2.5439   -0.5842    0.0000 C   0  0  0  0  0  0  0  0  0  0  0  0
    3.9763   -0.1390    0.0000 C   0  0  0  0  0  0  0  0  0  0  0  0
    4.3070    1.3241    0.0000 C   0  0  0  0  0  0  0  0  0  0  0  0
    3.2052    2.3420    0.0000 C   0  0  0  0  0  0  0  0  0  0  0  0
    1.7728    1.8968    0.0000 C   0  0  0  0  0  0  0  0  0  0  0  0
    5.7394    1.7693    0.0000 O   0  0  0  0  0  0  0  0  0  0  0  0
    6.8411    0.7514    0.0000 C   0  0  0  0  0  0  0  0  0  0  0  0
    7.9429   -0.2665    0.0000 C   0  0  0  0  0  0  0  0  0  0  0  0
    9.3264   -0.8462    0.0000 C   0  0  0  0  0  0  0  0  0  0  0  0
    9.1367    0.6418    0.0000 O   0  0  0  0  0  0  0  0  0  0  0  0
   -1.4227   -0.4567    0.0000 C   0  0  0  0  0  0  0  0  0  0  0  0
   -1.7533   -1.9198    0.0000 C   0  0  0  0  0  0  0  0  0  0  0  0
   -3.1857   -2.3650    0.0000 C   0  0  0  0  0  0  0  0  0  0  0  0
   -4.2875   -1.3471    0.0000 C   0  0  0  0  0  0  0  0  0  0  0  0
   -3.9568    0.1160    0.0000 C   0  0  0  0  0  0  0  0  0  0  0  0
   -2.5244    0.5612    0.0000 C   0  0  0  0  0  0  0  0  0  0  0  0
   -5.7199   -1.7924    0.0000 O   0  0  0  0  0  0  0  0  0  0  0  0
   -6.8216   -0.7745    0.0000 C   0  0  0  0  0  0  0  0  0  0  0  0
   -7.9234    0.2434    0.0000 C   0  0  0  0  0  0  0  0  0  0  0  0
   -9.3069    0.8231    0.0000 C   0  0  0  0  0  0  0  0  0  0  0  0
   -9.1172   -0.6648    0.0000 O   0  0  0  0  0  0  0  0  0  0  0  0
    1.3393   -1.3935    0.0000 H   0  0  0  0  0  0  0  0  0  0  0  0
   -0.3021   -1.9037    0.0000 H   0  0  0  0  0  0  0  0  0  0  0  0
    0.9002   -2.8763    0.0000 H   0  0  0  0  0  0  0  0  0  0  0  0
   -1.9330    1.3355    0.0000 H   0  0  0  0  0  0  0  0  0  0  0  0
    0.3216    1.8806    0.0000 H   0  0  0  0  0  0  0  0  0  0  0  0
   -0.8807    2.8533    0.0000 H   0  0  0  0  0  0  0  0  0  0  0  0
    2.3487   -1.4481    0.0000 H   0  0  0  0  0  0  0  0  0  0  0  0
    5.0781   -1.1569    0.0000 H   0  0  0  0  0  0  0  0  0  0  0  0
    3.5358    3.8051    0.0000 H   0  0  0  0  0  0  0  0  0  0  0  0
    1.1222    2.4979    0.0000 H   0  0  0  0  0  0  0  0  0  0  0  0
    7.8590    1.8532    0.0000 H   0  0  0  0  0  0  0  0  0  0  0  0
    5.8232   -0.3503    0.0000 H   0  0  0  0  0  0  0  0  0  0  0  0
    7.1318   -1.5283    0.0000 H   0  0  0  0  0  0  0  0  0  0  0  0
    8.9957   -2.3093    0.0000 H   0  0  0  0  0  0  0  0  0  0  0  0
   10.8247   -0.9177    0.0000 H   0  0  0  0  0  0  0  0  0  0  0  0
   -1.1027   -2.5209    0.0000 H   0  0  0  0  0  0  0  0  0  0  0  0
   -3.5163   -3.8281    0.0000 H   0  0  0  0  0  0  0  0  0  0  0  0
   -5.0586    1.1339    0.0000 H   0  0  0  0  0  0  0  0  0  0  0  0
   -2.1938    2.0243    0.0000 H   0  0  0  0  0  0  0  0  0  0  0  0
   -7.8395   -1.8762    0.0000 H   0  0  0  0  0  0  0  0  0  0  0  0
   -5.8037    0.3273    0.0000 H   0  0  0  0  0  0  0  0  0  0  0  0
   -7.1123    1.5052    0.0000 H   0  0  0  0  0  0  0  0  0  0  0  0
   -8.9762    2.2862    0.0000 H   0  0  0  0  0  0  0  0  0  0  0  0
  -10.8052    0.8947    0.0000 H   0  0  0  0  0  0  0  0  0  0  0  0
  1  2  1  0
  1 26  1  0
  1 27  1  0
  1 28  1  0
  2  3  1  0
  2  4  1  0
  2 15  1  0
  3 29  1  0
  3 30  1  0
  3 31  1  0
  4  5  2  0
  4  9  1  0
  5  6  1  0
  5 32  1  0
  6  7  2  0
  6 33  1  0
  7  8  1  0
  7 10  1  0
  8  9  2  0
  8 34  1  0
  9 35  1  0
 10 11  1  0
 11 12  1  0
 11 36  1  0
 11 37  1  0
 12 13  1  0
 12 14  1  0
 12 38  1  1
 13 14  1  0
 13 39  1  0
 13 40  1  0
 15 16  2  0
 15 20  1  0
 16 17  1  0
 16 41  1  0
 17 18  2  0
 17 42  1  0
 18 19  1  0
 18 21  1  0
 19 20  2  0
 19 43  1  0
 20 44  1  0
 21 22  1  0
 22 23  1  0
 22 45  1  0
 22 46  1  0
 23 24  1  0
 23 25  1  0
 23 47  1  1
 24 25  1  0
 24 48  1  0
 24 49  1  0
M  END
$$$$

     RDKit          2D

 31 33  0  0  1  0  0  0  0  0999 V2000
    0.6953   -1.5006    0.0000 C   0  0  0  0  0  0  0  0  0  0  0  0
    2.1406   -1.9019    0.0000 N   0  0  0  0  0  0  0  0  0  0  0  0
    2.9689   -0.6514    0.0000 C   0  0  0  0  0  0  0  0  0  0  0  0
    4.4525   -0.4302    0.0000 C   0  0  0  0  0  0  0  0  0  0  0  0
    5.0028    0.9653    0.0000 N   0  0  0  0  0  0  0  0  0  0  0  0
    4.0694    2.1395    0.0000 C   0  0  0  0  0  0  0  0  0  0  0  0
    2.5858    1.9183    0.0000 N   0  0  0  0  0  0  0  0  0  0  0  0
    2.0356    0.5229    0.0000 C   0  0  0  0  0  0  0  0  0  0  0  0
    0.6304   -0.0020    0.0000 N   0  0  0  0  0  0  0  0  0  0  0  0
   -0.6201    0.8264    0.0000 C   0  0  0  0  0  0  0  0  0  0  0  0
   -1.6711    1.8966    0.0000 C   0  0  0  0  0  0  0  0  0  0  0  0
   -3.0138    1.2278    0.0000 C   0  0  0  0  0  0  0  0  0  0  0  0
   -2.7926   -0.2558    0.0000 C   0  0  0  0  0  0  0  0  0  0  0  0
   -1.3132   -0.5039    0.0000 O   0  0  0  0  0  0  0  0  0  0  0  0
   -2.8847   -1.7530    0.0000 C   0  0  0  0  0  0  0  0  0  0  0  0
   -2.9768   -3.2501    0.0000 O   0  0  0  0  0  0  0  0  0  0  0  0
   -4.4661    0.8527    0.0000 O   0  0  0  0  0  0  0  0  0  0  0  0
   -2.4767    3.1620    0.0000 F   0  0  0  0  0  0  0  0  0  0  0  0
    4.6197    3.5349    0.0000 Cl  0  0  0  0  0  0  0  0  0  0  0  0
    5.3859   -1.6044    0.0000 N   0  0  0  0  0  0  0  0  0  0  0  0
   -0.4789   -2.4339    0.0000 H   0  0  0  0  0  0  0  0  0  0  0  0
    0.3344    1.9835    0.0000 H   0  0  0  0  0  0  0  0  0  0  0  0
   -0.4969    2.8300    0.0000 H   0  0  0  0  0  0  0  0  0  0  0  0
   -3.5386    2.6330    0.0000 H   0  0  0  0  0  0  0  0  0  0  0  0
   -4.2912   -0.3207    0.0000 H   0  0  0  0  0  0  0  0  0  0  0  0
   -1.3875   -1.8451    0.0000 H   0  0  0  0  0  0  0  0  0  0  0  0
   -4.3818   -1.6609    0.0000 H   0  0  0  0  0  0  0  0  0  0  0  0
   -4.3194   -3.9190    0.0000 H   0  0  0  0  0  0  0  0  0  0  0  0
   -5.5171    1.9230    0.0000 H   0  0  0  0  0  0  0  0  0  0  0  0
    6.8695   -1.3832    0.0000 H   0  0  0  0  0  0  0  0  0  0  0  0
    4.8357   -2.9998    0.0000 H   0  0  0  0  0  0  0  0  0  0  0  0
  1  2  2  0
  1  9  1  0
  1 21  1  0
  2  3  1  0
  3  4  1  0
  3  8  2  0
  4  5  2  0
  4 20  1  0
  5  6  1  0
  6  7  2  0
  6 19  1  0
  7  8  1  0
  8  9  1  0
 10 11  1  0
 10 14  1  0
 10 22  1  1
 10  9  1  0
 11 12  1  0
 11 18  1  0
 11 23  1  1
 12 13  1  0
 12 17  1  0
 12 24  1  6
 13 14  1  0
 13 15  1  0
 13 25  1  1
 15 16  1  0
 15 26  1  0
 15 27  1  0
 16 28  1  0
 17 29  1  0
 20 30  1  0
 20 31  1  0
M  END
$$$$

     RDKit          2D

 46 48  0  0  0  0  0  0  0  0999 V2000
  -10.3950    1.2327    0.0000 C   0  0  0  0  0  0  0  0  0  0  0  0
   -8.9025    1.0829    0.0000 C   0  0  0  0  0  0  0  0  0  0  0  0
   -7.4100    0.9331    0.0000 O   0  0  0  0  0  0  0  0  0  0  0  0
   -6.7934   -0.4343    0.0000 C   0  0  0  0  0  0  0  0  0  0  0  0
   -7.6694   -1.6520    0.0000 O   0  0  0  0  0  0  0  0  0  0  0  0
   -5.3009   -0.5841    0.0000 C   0  0  0  0  0  0  0  0  0  0  0  0
   -4.4249    0.6335    0.0000 C   0  0  0  0  0  0  0  0  0  0  0  0
   -2.9324    0.4838    0.0000 N   0  0  0  0  0  0  0  0  0  0  0  0
   -2.3159   -0.8837    0.0000 C   0  0  0  0  0  0  0  0  0  0  0  0
   -3.1919   -2.1013    0.0000 C   0  0  0  0  0  0  0  0  0  0  0  0
   -4.6844   -1.9515    0.0000 C   0  0  0  0  0  0  0  0  0  0  0  0
   -0.8234   -1.0334    0.0000 C   0  0  0  0  0  0  0  0  0  0  0  0
    0.6691   -1.1832    0.0000 C   0  0  0  0  0  0  0  0  0  0  0  0
    2.1616   -1.3330    0.0000 C   0  0  0  0  0  0  0  0  0  0  0  0
    3.0376   -0.1153    0.0000 C   0  0  0  0  0  0  0  0  0  0  0  0
    4.5301   -0.2651    0.0000 C   0  0  0  0  0  0  0  0  0  0  0  0
    5.1466   -1.6325    0.0000 C   0  0  0  0  0  0  0  0  0  0  0  0
    4.2707   -2.8502    0.0000 C   0  0  0  0  0  0  0  0  0  0  0  0
    2.7782   -2.7004    0.0000 C   0  0  0  0  0  0  0  0  0  0  0  0
    6.6391   -1.7823    0.0000 S   0  0  0  0  0  0  0  0  0  0  0  0
    7.5151   -0.5647    0.0000 C   0  0  0  0  0  0  0  0  0  0  0  0
    6.8985    0.8028    0.0000 C   0  0  0  0  0  0  0  0  0  0  0  0
    5.4060    0.9525    0.0000 C   0  0  0  0  0  0  0  0  0  0  0  0
    4.0548    1.6038    0.0000 C   0  0  0  0  0  0  0  0  0  0  0  0
    5.8127    2.3964    0.0000 C   0  0  0  0  0  0  0  0  0  0  0  0
  -10.5447   -0.2599    0.0000 H   0  0  0  0  0  0  0  0  0  0  0  0
  -10.2452    2.7252    0.0000 H   0  0  0  0  0  0  0  0  0  0  0  0
  -11.8875    1.3824    0.0000 H   0  0  0  0  0  0  0  0  0  0  0  0
   -8.7527    2.5754    0.0000 H   0  0  0  0  0  0  0  0  0  0  0  0
   -9.0522   -0.4096    0.0000 H   0  0  0  0  0  0  0  0  0  0  0  0
   -5.0415    2.0010    0.0000 H   0  0  0  0  0  0  0  0  0  0  0  0
   -2.5753   -3.4688    0.0000 H   0  0  0  0  0  0  0  0  0  0  0  0
   -5.5603   -3.1692    0.0000 H   0  0  0  0  0  0  0  0  0  0  0  0
    2.4210    1.2521    0.0000 H   0  0  0  0  0  0  0  0  0  0  0  0
    4.8872   -4.2176    0.0000 H   0  0  0  0  0  0  0  0  0  0  0  0
    1.9022   -3.9181    0.0000 H   0  0  0  0  0  0  0  0  0  0  0  0
    8.7547    0.2800    0.0000 H   0  0  0  0  0  0  0  0  0  0  0  0
    8.5621   -1.6388    0.0000 H   0  0  0  0  0  0  0  0  0  0  0  0
    6.9365    1.5990    0.0000 H   0  0  0  0  0  0  0  0  0  0  0  0
    8.3523    1.1725    0.0000 H   0  0  0  0  0  0  0  0  0  0  0  0
    3.2781    0.6694    0.0000 H   0  0  0  0  0  0  0  0  0  0  0  0
    4.5364    3.0243    0.0000 H   0  0  0  0  0  0  0  0  0  0  0  0
    2.7035    2.2550    0.0000 H   0  0  0  0  0  0  0  0  0  0  0  0
    6.6006    2.2754    0.0000 H   0  0  0  0  0  0  0  0  0  0  0  0
    4.4292    2.9760    0.0000 H   0  0  0  0  0  0  0  0  0  0  0  0
    6.2194    3.8402    0.0000 H   0  0  0  0  0  0  0  0  0  0  0  0
  1  2  1  0
  1 26  1  0
  1 27  1  0
  1 28  1  0
  2  3  1  0
  2 29  1  0
  2 30  1  0
  3  4  1  0
  4  5  2  0
  4  6  1  0
  6  7  2  0
  6 11  1  0
  7  8  1  0
  7 31  1  0
  8  9  2  0
  9 10  1  0
  9 12  1  0
 10 11  2  0
 10 32  1  0
 11 33  1  0
 12 13  3  0
 13 14  1  0
 14 15  2  0
 14 19  1  0
 15 16  1  0
 15 34  1  0
 16 17  2  0
 16 23  1  0
 17 18  1  0
 17 20  1  0
 18 19  2  0
 18 35  1  0
 19 36  1  0
 20 21  1  0
 21 22  1  0
 21 37  1  0
 21 38  1  0
 22 23  1  0
 22 39  1  0
 22 40  1  0
 23 24  1  0
 23 25  1  0
 24 41  1  0
 24 42  1  0
 24 43  1  0
 25 44  1  0
 25 45  1  0
 25 46  1  0
M  END
$$$$

     RDKit          2D

 48 46  0  0  0  0  0  0  0  0999 V2000
   -5.1962    2.1711    0.0000 C   0  0  0  0  0  0  0  0  0  0  0  0
   -5.1962    0.6711    0.0000 N   0  0  0  0  0  0  0  0  0  0  0  0
   -6.4952   -0.0789    0.0000 C   0  0  0  0  0  0  0  0  0  0  0  0
   -3.8971   -0.0789    0.0000 C   0  0  0  0  0  0  0  0  0  0  0  0
   -2.5981    0.6711    0.0000 C   0  0  0  0  0  0  0  0  0  0  0  0
   -1.2990   -0.0789    0.0000 C   0  0  0  0  0  0  0  0  0  0  0  0
   -1.2990   -1.5789    0.0000 C   0  0  0  0  0  0  0  0  0  0  0  0
   -2.5981   -2.3289    0.0000 C   0  0  0  0  0  0  0  0  0  0  0  0
   -3.8971   -1.5789    0.0000 C   0  0  0  0  0  0  0  0  0  0  0  0
    0.0000   -2.3289    0.0000 N   0  0  0  0  0  0  0  0  0  0  0  0
    1.2990   -1.5789    0.0000 C   0  0  0  0  0  0  0  0  0  0  0  0
    2.5981   -2.3289    0.0000 C   0  0  0  0  0  0  0  0  0  0  0  0
    3.8971   -1.5789    0.0000 C   0  0  0  0  0  0  0  0  0  0  0  0
    3.8971   -0.0789    0.0000 C   0  0  0  0  0  0  0  0  0  0  0  0
    5.1962    0.6711    0.0000 N   0  0  0  0  0  0  0  0  0  0  0  0
    6.4952   -0.0789    0.0000 C   0  0  0  0  0  0  0  0  0  0  0  0
    5.1962    2.1711    0.0000 C   0  0  0  0  0  0  0  0  0  0  0  0
    2.5981    0.6711    0.0000 C   0  0  0  0  0  0  0  0  0  0  0  0
    1.2990   -0.0789    0.0000 C   0  0  0  0  0  0  0  0  0  0  0  0
   -0.0000    0.6711    0.0000 S   0  0  0  0  0  0  0  0  0  0  0  0
   -0.0000    4.6711    0.0000 O   0  0  0  0  0  0  0  0  0  0  0  0
   -0.0000    6.4211    0.0000 O   0  0  0  0  0  0  0  0  0  0  0  0
   -0.0000    8.1711    0.0000 O   0  0  0  0  0  0  0  0  0  0  0  0
    0.0000    9.9211    0.0000 Cl  0  0  0  0  0  0  0  0  0  0  0  0
   -6.6962    2.1711    0.0000 H   0  0  0  0  0  0  0  0  0  0  0  0
   -3.6962    2.1711    0.0000 H   0  0  0  0  0  0  0  0  0  0  0  0
   -5.1962    3.6711    0.0000 H   0  0  0  0  0  0  0  0  0  0  0  0
   -7.2452    1.2201    0.0000 H   0  0  0  0  0  0  0  0  0  0  0  0
   -5.7452   -1.3780    0.0000 H   0  0  0  0  0  0  0  0  0  0  0  0
   -7.7942   -0.8289    0.0000 H   0  0  0  0  0  0  0  0  0  0  0  0
   -2.5981    2.1711    0.0000 H   0  0  0  0  0  0  0  0  0  0  0  0
   -2.5981   -3.8289    0.0000 H   0  0  0  0  0  0  0  0  0  0  0  0
   -5.1962   -2.3289    0.0000 H   0  0  0  0  0  0  0  0  0  0  0  0
    2.5981   -3.8289    0.0000 H   0  0  0  0  0  0  0  0  0  0  0  0
    5.1962   -2.3289    0.0000 H   0  0  0  0  0  0  0  0  0  0  0  0
    7.2452    1.2201    0.0000 H   0  0  0  0  0  0  0  0  0  0  0  0
    5.7452   -1.3780    0.0000 H   0  0  0  0  0  0  0  0  0  0  0  0
    7.7942   -0.8289    0.0000 H   0  0  0  0  0  0  0  0  0  0  0  0
    6.6962    2.1711    0.0000 H   0  0  0  0  0  0  0  0  0  0  0  0
    3.6962    2.1711    0.0000 H   0  0  0  0  0  0  0  0  0  0  0  0
    5.1962    3.6711    0.0000 H   0  0  0  0  0  0  0  0  0  0  0  0
    2.5981    2.1711    0.0000 H   0  0  0  0  0  0  0  0  0  0  0  0
    1.2990    5.4211    0.0000 H   0  0  0  0  0  0  0  0  0  0  0  0
   -1.2990    5.4211    0.0000 H   0  0  0  0  0  0  0  0  0  0  0  0
    1.2990    7.1711    0.0000 H   0  0  0  0  0  0  0  0  0  0  0  0
   -1.2990    7.1711    0.0000 H   0  0  0  0  0  0  0  0  0  0  0  0
    1.2990    8.9211    0.0000 H   0  0  0  0  0  0  0  0  0  0  0  0
   -1.2990    8.9211    0.0000 H   0  0  0  0  0  0  0  0  0  0  0  0
  1  2  1  0
  1 25  1  0
  1 26  1  0
  1 27  1  0
  2  3  1  0
  2  4  1  0
  3 28  1  0
  3 29  1  0
  3 30  1  0
  4  5  2  0
  4  9  1  0
  5  6  1  0
  5 31  1  0
  6  7  2  0
  6 20  1  0
  7  8  1  0
  7 10  1  0
  8  9  2  0
  8 32  1  0
  9 33  1  0
 10 11  2  0
 11 12  1  0
 11 19  1  0
 12 13  2  0
 12 34  1  0
 13 14  1  0
 13 35  1  0
 14 15  2  0
 14 18  1  0
 15 16  1  0
 15 17  1  0
 16 36  1  0
 16 37  1  0
 16 38  1  0
 17 39  1  0
 17 40  1  0
 17 41  1  0
 18 19  2  0
 18 42  1  0
 19 20  1  0
 21 43  1  0
 21 44  1  0
 22 45  1  0
 22 46  1  0
 23 47  1  0
 23 48  1  0
M  CHG  2  15   1  24  -1
M  END
$$$$

     RDKit          2D

 47 48  0  0  0  0  0  0  0  0999 V2000
    0.3830   -1.4944    0.0000 C   0  0  0  0  0  0  0  0  0  0  0  0
   -0.0286   -0.0520    0.0000 C   0  0  0  0  0  0  0  0  0  0  0  0
   -0.4402    1.3905    0.0000 C   0  0  0  0  0  0  0  0  0  0  0  0
    1.4139    0.3596    0.0000 C   0  0  0  0  0  0  0  0  0  0  0  0
    2.4915   -0.6837    0.0000 C   0  0  0  0  0  0  0  0  0  0  0  0
    3.9339   -0.2721    0.0000 C   0  0  0  0  0  0  0  0  0  0  0  0
    4.2987    1.1828    0.0000 C   0  0  0  0  0  0  0  0  0  0  0  0
    3.2210    2.2262    0.0000 C   0  0  0  0  0  0  0  0  0  0  0  0
    1.7786    1.8146    0.0000 C   0  0  0  0  0  0  0  0  0  0  0  0
    3.5858    3.6812    0.0000 Br  0  0  0  0  0  0  0  0  0  0  0  0
    5.7411    1.5944    0.0000 O   0  0  0  0  0  0  0  0  0  0  0  0
    6.8188    0.5511    0.0000 C   0  0  0  0  0  0  0  0  0  0  0  0
    7.8965   -0.4923    0.0000 C   0  0  0  0  0  0  0  0  0  0  0  0
    8.9741   -1.5357    0.0000 O   0  0  0  0  0  0  0  0  0  0  0  0
    5.0116   -1.3155    0.0000 Br  0  0  0  0  0  0  0  0  0  0  0  0
   -1.4710   -0.4636    0.0000 C   0  0  0  0  0  0  0  0  0  0  0  0
   -1.8357   -1.9185    0.0000 C   0  0  0  0  0  0  0  0  0  0  0  0
   -3.2782   -2.3301    0.0000 C   0  0  0  0  0  0  0  0  0  0  0  0
   -4.3558   -1.2867    0.0000 C   0  0  0  0  0  0  0  0  0  0  0  0
   -3.9911    0.1682    0.0000 C   0  0  0  0  0  0  0  0  0  0  0  0
   -2.5487    0.5798    0.0000 C   0  0  0  0  0  0  0  0  0  0  0  0
   -5.0687    1.2116    0.0000 Br  0  0  0  0  0  0  0  0  0  0  0  0
   -5.7983   -1.6983    0.0000 O   0  0  0  0  0  0  0  0  0  0  0  0
   -6.8759   -0.6550    0.0000 C   0  0  0  0  0  0  0  0  0  0  0  0
   -7.9536    0.3884    0.0000 C   0  0  0  0  0  0  0  0  0  0  0  0
   -9.0313    1.4318    0.0000 O   0  0  0  0  0  0  0  0  0  0  0  0
   -3.6429   -3.7851    0.0000 Br  0  0  0  0  0  0  0  0  0  0  0  0
   -0.3846   -1.9363    0.0000 H   0  0  0  0  0  0  0  0  0  0  0  0
    1.2683   -1.4647    0.0000 H   0  0  0  0  0  0  0  0  0  0  0  0
    0.7946   -2.9368    0.0000 H   0  0  0  0  0  0  0  0  0  0  0  0
   -1.9393    1.3401    0.0000 H   0  0  0  0  0  0  0  0  0  0  0  0
    0.3274    1.8324    0.0000 H   0  0  0  0  0  0  0  0  0  0  0  0
   -0.8518    2.8329    0.0000 H   0  0  0  0  0  0  0  0  0  0  0  0
    2.2761   -1.5429    0.0000 H   0  0  0  0  0  0  0  0  0  0  0  0
    1.1423    2.4307    0.0000 H   0  0  0  0  0  0  0  0  0  0  0  0
    7.8622    1.6287    0.0000 H   0  0  0  0  0  0  0  0  0  0  0  0
    5.7754   -0.5266    0.0000 H   0  0  0  0  0  0  0  0  0  0  0  0
    8.9398    0.5854    0.0000 H   0  0  0  0  0  0  0  0  0  0  0  0
    6.8531   -1.5700    0.0000 H   0  0  0  0  0  0  0  0  0  0  0  0
   10.4166   -1.1241    0.0000 H   0  0  0  0  0  0  0  0  0  0  0  0
   -1.1994   -2.5346    0.0000 H   0  0  0  0  0  0  0  0  0  0  0  0
   -2.1839    2.0348    0.0000 H   0  0  0  0  0  0  0  0  0  0  0  0
   -7.9193   -1.7326    0.0000 H   0  0  0  0  0  0  0  0  0  0  0  0
   -5.8326    0.4227    0.0000 H   0  0  0  0  0  0  0  0  0  0  0  0
   -6.9102    1.4661    0.0000 H   0  0  0  0  0  0  0  0  0  0  0  0
   -8.9970   -0.6893    0.0000 H   0  0  0  0  0  0  0  0  0  0  0  0
   -8.6665    2.8868    0.0000 H   0  0  0  0  0  0  0  0  0  0  0  0
  1  2  1  0
  1 28  1  0
  1 29  1  0
  1 30  1  0
  2  3  1  0
  2  4  1  0
  2 16  1  0
  3 31  1  0
  3 32  1  0
  3 33  1  0
  4  5  2  0
  4  9  1  0
  5  6  1  0
  5 34  1  0
  6  7  2  0
  6 15  1  0
  7  8  1  0
  7 11  1  0
  8  9  2  0
  8 10  1  0
  9 35  1  0
 11 12  1  0
 12 13  1  0
 12 36  1  0
 12 37  1  0
 13 14  1  0
 13 38  1  0
 13 39  1  0
 14 40  1  0
 16 17  2  0
 16 21  1  0
 17 18  1  0
 17 41  1  0
 18 19  2  0
 18 27  1  0
 19 20  1  0
 19 23  1  0
 20 21  2  0
 20 22  1  0
 21 42  1  0
 23 24  1  0
 24 25  1  0
 24 43  1  0
 24 44  1  0
 25 26  1  0
 25 45  1  0
 25 46  1  0
 26 47  1  0
M  END
$$$$

     RDKit          2D

 35 38  0  0  0  0  0  0  0  0999 V2000
   -3.0952   -1.8561    0.0000 C   0  0  0  0  0  0  0  0  0  0  0  0
   -1.8457   -1.0262    0.0000 C   0  0  0  0  0  0  0  0  0  0  0  0
   -1.9397    0.4709    0.0000 C   0  0  0  0  0  0  0  0  0  0  0  0
   -3.2831    1.1380    0.0000 C   0  0  0  0  0  0  0  0  0  0  0  0
   -4.5326    0.3081    0.0000 C   0  0  0  0  0  0  0  0  0  0  0  0
   -4.4386   -1.1890    0.0000 C   0  0  0  0  0  0  0  0  0  0  0  0
   -5.8761    0.9752    0.0000 Cl  0  0  0  0  0  0  0  0  0  0  0  0
   -0.6902    1.3008    0.0000 C   0  0  0  0  0  0  0  0  0  0  0  0
    0.1398    0.0513    0.0000 C   0  0  0  0  0  0  0  0  0  0  0  0
    1.6368    0.1452    0.0000 C   0  0  0  0  0  0  0  0  0  0  0  0
    2.4667   -1.1043    0.0000 C   0  0  0  0  0  0  0  0  0  0  0  0
    1.7996   -2.4477    0.0000 C   0  0  0  0  0  0  0  0  0  0  0  0
    0.3025   -2.5417    0.0000 C   0  0  0  0  0  0  0  0  0  0  0  0
   -0.5274   -1.2922    0.0000 C   0  0  0  0  0  0  0  0  0  0  0  0
    2.8711   -3.4974    0.0000 N   0  0  0  0  0  0  0  0  0  0  0  0
    4.2005   -2.8026    0.0000 C   0  0  0  0  0  0  0  0  0  0  0  0
    3.9506   -1.3236    0.0000 N   0  0  0  0  0  0  0  0  0  0  0  0
    0.5593    2.1307    0.0000 N   0  0  0  0  0  0  0  0  0  0  0  0
    0.6224    3.6294    0.0000 C   0  0  0  0  0  0  0  0  0  0  0  0
    2.0672    4.0325    0.0000 C   0  0  0  0  0  0  0  0  0  0  0  0
    2.8971    2.7830    0.0000 N   0  0  0  0  0  0  0  0  0  0  0  0
    1.9652    1.6076    0.0000 C   0  0  0  0  0  0  0  0  0  0  0  0
   -3.0012   -3.3532    0.0000 H   0  0  0  0  0  0  0  0  0  0  0  0
   -1.2387   -1.5430    0.0000 H   0  0  0  0  0  0  0  0  0  0  0  0
   -3.3771    2.6351    0.0000 H   0  0  0  0  0  0  0  0  0  0  0  0
   -5.6881   -2.0189    0.0000 H   0  0  0  0  0  0  0  0  0  0  0  0
   -1.5201    2.5503    0.0000 H   0  0  0  0  0  0  0  0  0  0  0  0
    2.6092    1.2874    0.0000 H   0  0  0  0  0  0  0  0  0  0  0  0
   -0.3646   -3.8852    0.0000 H   0  0  0  0  0  0  0  0  0  0  0  0
   -1.9572   -1.7456    0.0000 H   0  0  0  0  0  0  0  0  0  0  0  0
    5.5440   -3.4698    0.0000 H   0  0  0  0  0  0  0  0  0  0  0  0
    5.0002   -0.2520    0.0000 H   0  0  0  0  0  0  0  0  0  0  0  0
   -0.5530    4.5612    0.0000 H   0  0  0  0  0  0  0  0  0  0  0  0
    2.5902    5.4384    0.0000 H   0  0  0  0  0  0  0  0  0  0  0  0
    2.7060    0.3033    0.0000 H   0  0  0  0  0  0  0  0  0  0  0  0
  1  2  2  0
  1  6  1  0
  1 23  1  0
  2  3  1  0
  2 24  1  0
  3  4  2  0
  3  8  1  0
  4  5  1  0
  4 25  1  0
  5  6  2  0
  5  7  1  0
  6 26  1  0
  8  9  1  0
  8 18  1  0
  8 27  1  1
  9 10  2  0
  9 14  1  0
 10 11  1  0
 10 28  1  0
 11 12  2  0
 11 17  1  0
 12 13  1  0
 12 15  1  0
 13 14  2  0
 13 29  1  0
 14 30  1  0
 15 16  2  0
 16 17  1  0
 16 31  1  0
 17 32  1  0
 18 19  1  0
 18 22  1  0
 19 20  2  0
 19 33  1  0
 20 21  1  0
 20 34  1  0
 21 22  2  0
 22 35  1  0
M  END
$$$$

     RDKit          2D

 39 41  0  0  0  0  0  0  0  0999 V2000
    5.1913    1.7291    0.0000 C   0  0  0  0  0  0  0  0  0  0  0  0
    3.7637    1.2688    0.0000 C   0  0  0  0  0  0  0  0  0  0  0  0
    3.4485   -0.1977    0.0000 C   0  0  0  0  0  0  0  0  0  0  0  0
    4.5610   -1.2039    0.0000 C   0  0  0  0  0  0  0  0  0  0  0  0
    5.9886   -0.7436    0.0000 C   0  0  0  0  0  0  0  0  0  0  0  0
    6.3038    0.7230    0.0000 C   0  0  0  0  0  0  0  0  0  0  0  0
    7.7314    1.1833    0.0000 Cl  0  0  0  0  0  0  0  0  0  0  0  0
    4.2459   -2.6704    0.0000 Cl  0  0  0  0  0  0  0  0  0  0  0  0
    2.0209   -0.6581    0.0000 C   0  0  0  0  0  0  0  0  0  0  0  0
    0.5933   -1.1184    0.0000 O   0  0  0  0  0  0  0  0  0  0  0  0
   -0.5192   -0.1123    0.0000 C   0  0  0  0  0  0  0  0  0  0  0  0
   -1.6316    0.8939    0.0000 C   0  0  0  0  0  0  0  0  0  0  0  0
   -2.7441    1.9001    0.0000 N   0  0  0  0  0  0  0  0  0  0  0  0
   -2.5840    3.3915    0.0000 C   0  0  0  0  0  0  0  0  0  0  0  0
   -3.9530    4.0047    0.0000 C   0  0  0  0  0  0  0  0  0  0  0  0
   -4.9591    2.8922    0.0000 N   0  0  0  0  0  0  0  0  0  0  0  0
   -4.2120    1.5915    0.0000 C   0  0  0  0  0  0  0  0  0  0  0  0
   -1.5253   -1.2247    0.0000 C   0  0  0  0  0  0  0  0  0  0  0  0
   -2.9919   -0.9096    0.0000 C   0  0  0  0  0  0  0  0  0  0  0  0
   -3.9980   -2.0221    0.0000 C   0  0  0  0  0  0  0  0  0  0  0  0
   -3.5377   -3.4497    0.0000 C   0  0  0  0  0  0  0  0  0  0  0  0
   -2.0712   -3.7648    0.0000 C   0  0  0  0  0  0  0  0  0  0  0  0
   -1.0650   -2.6524    0.0000 C   0  0  0  0  0  0  0  0  0  0  0  0
   -4.5439   -4.5622    0.0000 Cl  0  0  0  0  0  0  0  0  0  0  0  0
   -3.2637   -0.0666    0.0000 Cl  0  0  0  0  0  0  0  0  0  0  0  0
    5.5064    3.1957    0.0000 H   0  0  0  0  0  0  0  0  0  0  0  0
    2.6512    2.2750    0.0000 H   0  0  0  0  0  0  0  0  0  0  0  0
    7.1011   -1.7497    0.0000 H   0  0  0  0  0  0  0  0  0  0  0  0
    1.5606    0.7695    0.0000 H   0  0  0  0  0  0  0  0  0  0  0  0
    2.4813   -2.0857    0.0000 H   0  0  0  0  0  0  0  0  0  0  0  0
    0.4870    1.0002    0.0000 H   0  0  0  0  0  0  0  0  0  0  0  0
   -2.3671    0.4003    0.0000 H   0  0  0  0  0  0  0  0  0  0  0  0
   -0.6255    2.0064    0.0000 H   0  0  0  0  0  0  0  0  0  0  0  0
   -1.2833    4.1386    0.0000 H   0  0  0  0  0  0  0  0  0  0  0  0
   -4.2616    5.4726    0.0000 H   0  0  0  0  0  0  0  0  0  0  0  0
   -4.8252    0.2225    0.0000 H   0  0  0  0  0  0  0  0  0  0  0  0
   -5.4646   -1.7070    0.0000 H   0  0  0  0  0  0  0  0  0  0  0  0
   -1.6108   -5.1924    0.0000 H   0  0  0  0  0  0  0  0  0  0  0  0
    0.4015   -2.9675    0.0000 H   0  0  0  0  0  0  0  0  0  0  0  0
  1  2  2  0
  1  6  1  0
  1 26  1  0
  2  3  1  0
  2 27  1  0
  3  4  2  0
  3  9  1  0
  4  5  1  0
  4  8  1  0
  5  6  2  0
  5 28  1  0
  6  7  1  0
  9 10  1  0
  9 29  1  0
  9 30  1  0
 10 11  1  0
 11 12  1  0
 11 18  1  0
 11 31  1  1
 12 13  1  0
 12 32  1  0
 12 33  1  0
 13 14  1  0
 13 17  1  0
 14 15  2  0
 14 34  1  0
 15 16  1  0
 15 35  1  0
 16 17  2  0
 17 36  1  0
 18 19  2  0
 18 23  1  0
 19 20  1  0
 19 25  1  0
 20 21  2  0
 20 37  1  0
 21 22  1  0
 21 24  1  0
 22 23  2  0
 22 38  1  0
 23 39  1  0
M  END
$$$$

     RDKit          2D

 41 42  0  0  0  0  0  0  0  0999 V2000
   -6.7500   -2.6931    0.0000 C   0  0  0  0  0  0  0  0  0  0  0  0
   -5.2500   -2.6931    0.0000 C   0  0  0  0  0  0  0  0  0  0  0  0
   -4.5000   -1.3941    0.0000 C   0  0  0  0  0  0  0  0  0  0  0  0
   -3.7500   -0.0951    0.0000 C   0  0  0  0  0  0  0  0  0  0  0  0
   -4.5000    1.2040    0.0000 C   0  0  0  0  0  0  0  0  0  0  0  0
   -3.7500    2.5030    0.0000 C   0  0  0  0  0  0  0  0  0  0  0  0
   -2.2500    2.5030    0.0000 C   0  0  0  0  0  0  0  0  0  0  0  0
   -1.5000    1.2040    0.0000 C   0  0  0  0  0  0  0  0  0  0  0  0
   -2.2500   -0.0951    0.0000 C   0  0  0  0  0  0  0  0  0  0  0  0
   -0.0000    1.2040    0.0000 S   0  0  0  0  0  0  0  0  0  0  0  0
   -0.0000   -0.2960    0.0000 O   0  0  0  0  0  0  0  0  0  0  0  0
   -0.0000    2.7040    0.0000 O   0  0  0  0  0  0  0  0  0  0  0  0
    1.5000    1.2040    0.0000 C   0  0  0  0  0  0  0  0  0  0  0  0
    2.2500   -0.0951    0.0000 C   0  0  0  0  0  0  0  0  0  0  0  0
    3.7500   -0.0951    0.0000 C   0  0  0  0  0  0  0  0  0  0  0  0
    4.5000    1.2040    0.0000 C   0  0  0  0  0  0  0  0  0  0  0  0
    3.7500    2.5030    0.0000 C   0  0  0  0  0  0  0  0  0  0  0  0
    2.2500    2.5030    0.0000 C   0  0  0  0  0  0  0  0  0  0  0  0
    6.0000    1.2040    0.0000 O   0  0  0  0  0  0  0  0  0  0  0  0
    4.5000   -1.3941    0.0000 C   0  0  0  0  0  0  0  0  0  0  0  0
    5.2500   -2.6931    0.0000 C   0  0  0  0  0  0  0  0  0  0  0  0
    6.7500   -2.6931    0.0000 C   0  0  0  0  0  0  0  0  0  0  0  0
   -6.0000    1.2040    0.0000 O   0  0  0  0  0  0  0  0  0  0  0  0
   -7.5000   -3.9922    0.0000 H   0  0  0  0  0  0  0  0  0  0  0  0
   -7.5000   -1.3941    0.0000 H   0  0  0  0  0  0  0  0  0  0  0  0
   -4.5000   -3.9922    0.0000 H   0  0  0  0  0  0  0  0  0  0  0  0
   -5.7990   -0.6441    0.0000 H   0  0  0  0  0  0  0  0  0  0  0  0
   -3.2010   -2.1441    0.0000 H   0  0  0  0  0  0  0  0  0  0  0  0
   -4.5000    3.8021    0.0000 H   0  0  0  0  0  0  0  0  0  0  0  0
   -1.5000    3.8021    0.0000 H   0  0  0  0  0  0  0  0  0  0  0  0
   -1.5000   -1.3941    0.0000 H   0  0  0  0  0  0  0  0  0  0  0  0
    1.5000   -1.3941    0.0000 H   0  0  0  0  0  0  0  0  0  0  0  0
    4.5000    3.8021    0.0000 H   0  0  0  0  0  0  0  0  0  0  0  0
    1.5000    3.8021    0.0000 H   0  0  0  0  0  0  0  0  0  0  0  0
    6.7500    2.5030    0.0000 H   0  0  0  0  0  0  0  0  0  0  0  0
    5.7990   -0.6441    0.0000 H   0  0  0  0  0  0  0  0  0  0  0  0
    3.2010   -2.1441    0.0000 H   0  0  0  0  0  0  0  0  0  0  0  0
    4.5000   -3.9922    0.0000 H   0  0  0  0  0  0  0  0  0  0  0  0
    7.5000   -3.9922    0.0000 H   0  0  0  0  0  0  0  0  0  0  0  0
    7.5000   -1.3941    0.0000 H   0  0  0  0  0  0  0  0  0  0  0  0
   -6.7500    2.5030    0.0000 H   0  0  0  0  0  0  0  0  0  0  0  0
  1  2  2  0
  1 24  1  0
  1 25  1  0
  2  3  1  0
  2 26  1  0
  3  4  1  0
  3 27  1  0
  3 28  1  0
  4  5  2  0
  4  9  1  0
  5  6  1  0
  5 23  1  0
  6  7  2  0
  6 29  1  0
  7  8  1  0
  7 30  1  0
  8  9  2  0
  8 10  1  0
  9 31  1  0
 10 11  2  0
 10 12  2  0
 10 13  1  0
 13 14  2  0
 13 18  1  0
 14 15  1  0
 14 32  1  0
 15 16  2  0
 15 20  1  0
 16 17  1  0
 16 19  1  0
 17 18  2  0
 17 33  1  0
 18 34  1  0
 19 35  1  0
 20 21  1  0
 20 36  1  0
 20 37  1  0
 21 22  2  0
 21 38  1  0
 22 39  1  0
 22 40  1  0
 23 41  1  0
M  END
$$$$

     RDKit          2D

 75 74  0  0  0  0  0  0  0  0999 V2000
   -7.4540   -0.1363    0.0000 C   0  0  0  0  0  0  0  0  0  0  0  0
   -6.7047    1.1631    0.0000 C   0  0  0  0  0  0  0  0  0  0  0  0
   -5.2047    1.1639    0.0000 C   0  0  0  0  0  0  0  0  0  0  0  0
   -4.4540   -0.1348    0.0000 C   0  0  0  0  0  0  0  0  0  0  0  0
   -5.2034   -1.4342    0.0000 C   0  0  0  0  0  0  0  0  0  0  0  0
   -6.7034   -1.4350    0.0000 C   0  0  0  0  0  0  0  0  0  0  0  0
   -7.4527   -2.7344    0.0000 C   0  0  0  0  0  0  0  0  0  0  0  0
   -6.7020   -4.0331    0.0000 N   0  0  0  0  0  0  0  0  0  0  0  0
   -8.9527   -2.7352    0.0000 N   0  0  0  0  0  0  0  0  0  0  0  0
   -4.4553    2.4633    0.0000 O   0  0  0  0  0  0  0  0  0  0  0  0
   -2.9553    2.4640    0.0000 C   0  0  0  0  0  0  0  0  0  0  0  0
   -1.4553    2.4648    0.0000 C   0  0  0  0  0  0  0  0  0  0  0  0
    0.0447    2.4655    0.0000 C   0  0  0  0  0  0  0  0  0  0  0  0
    1.5447    2.4663    0.0000 C   0  0  0  0  0  0  0  0  0  0  0  0
    3.0447    2.4671    0.0000 C   0  0  0  0  0  0  0  0  0  0  0  0
    4.5447    2.4678    0.0000 O   0  0  0  0  0  0  0  0  0  0  0  0
    5.2953    1.1692    0.0000 C   0  0  0  0  0  0  0  0  0  0  0  0
    4.5460   -0.1303    0.0000 C   0  0  0  0  0  0  0  0  0  0  0  0
    5.2966   -1.4289    0.0000 C   0  0  0  0  0  0  0  0  0  0  0  0
    6.7966   -1.4282    0.0000 C   0  0  0  0  0  0  0  0  0  0  0  0
    7.5460   -0.1287    0.0000 C   0  0  0  0  0  0  0  0  0  0  0  0
    6.7953    1.1699    0.0000 C   0  0  0  0  0  0  0  0  0  0  0  0
    7.5473   -2.7268    0.0000 C   0  0  0  0  0  0  0  0  0  0  0  0
    9.0473   -2.7261    0.0000 N   0  0  0  0  0  0  0  0  0  0  0  0
    6.7980   -4.0262    0.0000 N   0  0  0  0  0  0  0  0  0  0  0  0
   -1.5000    6.4671    0.0000 C   0  0  0  0  0  0  0  0  0  0  0  0
    0.0000    6.4671    0.0000 C   0  0  0  0  0  0  0  0  0  0  0  0
    1.5000    6.4671    0.0000 S   0  0  0  0  0  0  0  0  0  0  0  0
    1.5000    4.9671    0.0000 O   0  0  0  0  0  0  0  0  0  0  0  0
    1.5000    7.9671    0.0000 O   0  0  0  0  0  0  0  0  0  0  0  0
    3.0000    6.4671    0.0000 O   0  0  0  0  0  0  0  0  0  0  0  0
   -3.0000    6.4671    0.0000 O   0  0  0  0  0  0  0  0  0  0  0  0
   -1.5000   10.4671    0.0000 C   0  0  0  0  0  0  0  0  0  0  0  0
    0.0000   10.4671    0.0000 C   0  0  0  0  0  0  0  0  0  0  0  0
    1.5000   10.4671    0.0000 S   0  0  0  0  0  0  0  0  0  0  0  0
    1.5000    8.9671    0.0000 O   0  0  0  0  0  0  0  0  0  0  0  0
    1.5000   11.9671    0.0000 O   0  0  0  0  0  0  0  0  0  0  0  0
    3.0000   10.4671    0.0000 O   0  0  0  0  0  0  0  0  0  0  0  0
   -3.0000   10.4671    0.0000 O   0  0  0  0  0  0  0  0  0  0  0  0
   -8.9540   -0.1371    0.0000 H   0  0  0  0  0  0  0  0  0  0  0  0
   -7.4553    2.4618    0.0000 H   0  0  0  0  0  0  0  0  0  0  0  0
   -2.9540   -0.1340    0.0000 H   0  0  0  0  0  0  0  0  0  0  0  0
   -4.4527   -2.7329    0.0000 H   0  0  0  0  0  0  0  0  0  0  0  0
   -5.2020   -4.0323    0.0000 H   0  0  0  0  0  0  0  0  0  0  0  0
   -9.7020   -4.0346    0.0000 H   0  0  0  0  0  0  0  0  0  0  0  0
   -9.7034   -1.4365    0.0000 H   0  0  0  0  0  0  0  0  0  0  0  0
   -2.9561    3.9640    0.0000 H   0  0  0  0  0  0  0  0  0  0  0  0
   -2.9546    0.9640    0.0000 H   0  0  0  0  0  0  0  0  0  0  0  0
   -1.4546    0.9648    0.0000 H   0  0  0  0  0  0  0  0  0  0  0  0
   -1.4561    3.9648    0.0000 H   0  0  0  0  0  0  0  0  0  0  0  0
    0.0454    0.9655    0.0000 H   0  0  0  0  0  0  0  0  0  0  0  0
    0.0439    3.9655    0.0000 H   0  0  0  0  0  0  0  0  0  0  0  0
    1.5439    3.9663    0.0000 H   0  0  0  0  0  0  0  0  0  0  0  0
    1.5454    0.9663    0.0000 H   0  0  0  0  0  0  0  0  0  0  0  0
    3.0454    0.9671    0.0000 H   0  0  0  0  0  0  0  0  0  0  0  0
    3.0439    3.9671    0.0000 H   0  0  0  0  0  0  0  0  0  0  0  0
    3.0460   -0.1310    0.0000 H   0  0  0  0  0  0  0  0  0  0  0  0
    4.5473   -2.7283    0.0000 H   0  0  0  0  0  0  0  0  0  0  0  0
    9.0460   -0.1280    0.0000 H   0  0  0  0  0  0  0  0  0  0  0  0
    7.5447    2.4693    0.0000 H   0  0  0  0  0  0  0  0  0  0  0  0
    9.7966   -1.4266    0.0000 H   0  0  0  0  0  0  0  0  0  0  0  0
    7.5486   -5.3249    0.0000 H   0  0  0  0  0  0  0  0  0  0  0  0
    5.2980   -4.0270    0.0000 H   0  0  0  0  0  0  0  0  0  0  0  0
   -1.5000    4.9671    0.0000 H   0  0  0  0  0  0  0  0  0  0  0  0
   -1.5000    7.9671    0.0000 H   0  0  0  0  0  0  0  0  0  0  0  0
    0.0000    4.9671    0.0000 H   0  0  0  0  0  0  0  0  0  0  0  0
   -0.0000    7.9671    0.0000 H   0  0  0  0  0  0  0  0  0  0  0  0
    3.7500    7.7661    0.0000 H   0  0  0  0  0  0  0  0  0  0  0  0
   -3.7500    7.7661    0.0000 H   0  0  0  0  0  0  0  0  0  0  0  0
   -1.5000    8.9671    0.0000 H   0  0  0  0  0  0  0  0  0  0  0  0
   -1.5000   11.9671    0.0000 H   0  0  0  0  0  0  0  0  0  0  0  0
    0.0000    8.9671    0.0000 H   0  0  0  0  0  0  0  0  0  0  0  0
   -0.0000   11.9671    0.0000 H   0  0  0  0  0  0  0  0  0  0  0  0
    3.7500   11.7661    0.0000 H   0  0  0  0  0  0  0  0  0  0  0  0
   -3.7500   11.7661    0.0000 H   0  0  0  0  0  0  0  0  0  0  0  0
  1  2  2  0
  1  6  1  0
  1 40  1  0
  2  3  1  0
  2 41  1  0
  3  4  2  0
  3 10  1  0
  4  5  1  0
  4 42  1  0
  5  6  2  0
  5 43  1  0
  6  7  1  0
  7  8  2  0
  7  9  1  0
  8 44  1  0
  9 45  1  0
  9 46  1  0
 10 11  1  0
 11 12  1  0
 11 47  1  0
 11 48  1  0
 12 13  1  0
 12 49  1  0
 12 50  1  0
 13 14  1  0
 13 51  1  0
 13 52  1  0
 14 15  1  0
 14 53  1  0
 14 54  1  0
 15 16  1  0
 15 55  1  0
 15 56  1  0
 16 17  1  0
 17 18  2  0
 17 22  1  0
 18 19  1  0
 18 57  1  0
 19 20  2  0
 19 58  1  0
 20 21  1  0
 20 23  1  0
 21 22  2  0
 21 59  1  0
 22 60  1  0
 23 24  2  0
 23 25  1  0
 24 61  1  0
 25 62  1  0
 25 63  1  0
 26 27  1  0
 26 32  1  0
 26 64  1  0
 26 65  1  0
 27 28  1  0
 27 66  1  0
 27 67  1  0
 28 29  2  0
 28 30  2  0
 28 31  1  0
 31 68  1  0
 32 69  1  0
 33 34  1  0
 33 39  1  0
 33 70  1  0
 33 71  1  0
 34 35  1  0
 34 72  1  0
 34 73  1  0
 35 36  2  0
 35 37  2  0
 35 38  1  0
 38 74  1  0
 39 75  1  0
M  END
$$$$

     RDKit          2D

 44 45  0  0  0  0  0  0  0  0999 V2000
   -4.5610    1.2039    0.0000 C   0  0  0  0  0  0  0  0  0  0  0  0
   -5.9886    0.7436    0.0000 C   0  0  0  0  0  0  0  0  0  0  0  0
   -6.3038   -0.7230    0.0000 C   0  0  0  0  0  0  0  0  0  0  0  0
   -5.1913   -1.7291    0.0000 C   0  0  0  0  0  0  0  0  0  0  0  0
   -3.7637   -1.2688    0.0000 C   0  0  0  0  0  0  0  0  0  0  0  0
   -3.4485    0.1977    0.0000 C   0  0  0  0  0  0  0  0  0  0  0  0
   -2.0209    0.6581    0.0000 C   0  0  0  0  0  0  0  0  0  0  0  0
   -0.5933    1.1184    0.0000 S   0  0  0  0  0  0  0  0  0  0  0  0
    0.5192    0.1123    0.0000 C   0  0  0  0  0  0  0  0  0  0  0  0
    1.6316   -0.8939    0.0000 C   0  0  0  0  0  0  0  0  0  0  0  0
    2.7441   -1.9001    0.0000 N   0  0  0  0  0  0  0  0  0  0  0  0
    2.5840   -3.3915    0.0000 C   0  0  0  0  0  0  0  0  0  0  0  0
    3.9530   -4.0047    0.0000 C   0  0  0  0  0  0  0  0  0  0  0  0
    4.9591   -2.8922    0.0000 N   0  0  0  0  0  0  0  0  0  0  0  0
    4.2120   -1.5915    0.0000 C   0  0  0  0  0  0  0  0  0  0  0  0
    1.5253    1.2247    0.0000 C   0  0  0  0  0  0  0  0  0  0  0  0
    2.9919    0.9096    0.0000 C   0  0  0  0  0  0  0  0  0  0  0  0
    3.9980    2.0221    0.0000 C   0  0  0  0  0  0  0  0  0  0  0  0
    3.5377    3.4497    0.0000 C   0  0  0  0  0  0  0  0  0  0  0  0
    2.0712    3.7648    0.0000 C   0  0  0  0  0  0  0  0  0  0  0  0
    1.0650    2.6524    0.0000 C   0  0  0  0  0  0  0  0  0  0  0  0
    4.5439    4.5622    0.0000 Cl  0  0  0  0  0  0  0  0  0  0  0  0
    3.2637    0.0666    0.0000 Cl  0  0  0  0  0  0  0  0  0  0  0  0
   -7.7314   -1.1833    0.0000 Cl  0  0  0  0  0  0  0  0  0  0  0  0
    0.5196    7.6924    0.0000 N   0  0  0  0  0  0  0  0  0  0  0  0
    0.5196    6.1924    0.0000 O   0  0  0  0  0  0  0  0  0  0  0  0
   -0.7794    8.4424    0.0000 O   0  0  0  0  0  0  0  0  0  0  0  0
    1.8187    8.4424    0.0000 O   0  0  0  0  0  0  0  0  0  0  0  0
   -4.2459    2.6704    0.0000 H   0  0  0  0  0  0  0  0  0  0  0  0
   -7.1011    1.7497    0.0000 H   0  0  0  0  0  0  0  0  0  0  0  0
   -5.5064   -3.1957    0.0000 H   0  0  0  0  0  0  0  0  0  0  0  0
   -2.6512   -2.2750    0.0000 H   0  0  0  0  0  0  0  0  0  0  0  0
   -2.4813    2.0857    0.0000 H   0  0  0  0  0  0  0  0  0  0  0  0
   -1.5606   -0.7695    0.0000 H   0  0  0  0  0  0  0  0  0  0  0  0
   -0.4870   -1.0002    0.0000 H   0  0  0  0  0  0  0  0  0  0  0  0
    2.3671   -0.4003    0.0000 H   0  0  0  0  0  0  0  0  0  0  0  0
    0.6255   -2.0064    0.0000 H   0  0  0  0  0  0  0  0  0  0  0  0
    1.2833   -4.1386    0.0000 H   0  0  0  0  0  0  0  0  0  0  0  0
    4.2616   -5.4726    0.0000 H   0  0  0  0  0  0  0  0  0  0  0  0
    4.8252   -0.2225    0.0000 H   0  0  0  0  0  0  0  0  0  0  0  0
    5.4646    1.7070    0.0000 H   0  0  0  0  0  0  0  0  0  0  0  0
    1.6108    5.1924    0.0000 H   0  0  0  0  0  0  0  0  0  0  0  0
   -0.4015    2.9675    0.0000 H   0  0  0  0  0  0  0  0  0  0  0  0
   -2.0785    7.6924    0.0000 H   0  0  0  0  0  0  0  0  0  0  0  0
  1  2  2  0
  1  6  1  0
  1 29  1  0
  2  3  1  0
  2 30  1  0
  3  4  2  0
  3 24  1  0
  4  5  1  0
  4 31  1  0
  5  6  2  0
  5 32  1  0
  6  7  1  0
  7  8  1  0
  7 33  1  0
  7 34  1  0
  8  9  1  0
  9 10  1  0
  9 16  1  0
  9 35  1  1
 10 11  1  0
 10 36  1  0
 10 37  1  0
 11 12  1  0
 11 15  1  0
 12 13  2  0
 12 38  1  0
 13 14  1  0
 13 39  1  0
 14 15  2  0
 15 40  1  0
 16 17  2  0
 16 21  1  0
 17 18  1  0
 17 23  1  0
 18 19  2  0
 18 41  1  0
 19 20  1  0
 19 22  1  0
 20 21  2  0
 20 42  1  0
 21 43  1  0
 25 26  2  0
 25 27  1  0
 25 28  1  0
 27 44  1  0
M  CHG  2  25   1  28  -1
M  END
$$$$

     RDKit          2D

 37 39  0  0  0  0  0  0  0  0999 V2000
    0.0421   -2.2637    0.0000 C   0  0  0  0  0  0  0  0  0  0  0  0
    0.0126   -0.7640    0.0000 Si  0  0  0  0  0  4  0  0  0  0  0  0
   -1.4871   -0.7935    0.0000 C   0  0  0  0  0  0  0  0  0  0  0  0
   -2.9868   -0.8230    0.0000 N   0  0  0  0  0  0  0  0  0  0  0  0
   -3.8444   -2.0536    0.0000 C   0  0  0  0  0  0  0  0  0  0  0  0
   -5.2799   -1.6183    0.0000 N   0  0  0  0  0  0  0  0  0  0  0  0
   -5.3094   -0.1186    0.0000 C   0  0  0  0  0  0  0  0  0  0  0  0
   -3.8922    0.3729    0.0000 N   0  0  0  0  0  0  0  0  0  0  0  0
   -0.0169    0.7358    0.0000 C   0  0  0  0  0  0  0  0  0  0  0  0
    1.2671    1.5112    0.0000 C   0  0  0  0  0  0  0  0  0  0  0  0
    1.2376    3.0109    0.0000 C   0  0  0  0  0  0  0  0  0  0  0  0
   -0.0759    3.7352    0.0000 C   0  0  0  0  0  0  0  0  0  0  0  0
   -1.3600    2.9597    0.0000 C   0  0  0  0  0  0  0  0  0  0  0  0
   -1.3304    1.4600    0.0000 C   0  0  0  0  0  0  0  0  0  0  0  0
   -0.1055    5.2349    0.0000 F   0  0  0  0  0  0  0  0  0  0  0  0
    1.5123   -0.7344    0.0000 C   0  0  0  0  0  0  0  0  0  0  0  0
    2.2366    0.5791    0.0000 C   0  0  0  0  0  0  0  0  0  0  0  0
    3.7363    0.6086    0.0000 C   0  0  0  0  0  0  0  0  0  0  0  0
    4.5118   -0.6754    0.0000 C   0  0  0  0  0  0  0  0  0  0  0  0
    3.7875   -1.9889    0.0000 C   0  0  0  0  0  0  0  0  0  0  0  0
    2.2878   -2.0185    0.0000 C   0  0  0  0  0  0  0  0  0  0  0  0
    6.0115   -0.6459    0.0000 F   0  0  0  0  0  0  0  0  0  0  0  0
    1.5044   -2.5979    0.0000 H   0  0  0  0  0  0  0  0  0  0  0  0
   -0.8347   -2.3889    0.0000 H   0  0  0  0  0  0  0  0  0  0  0  0
    0.0717   -3.7634    0.0000 H   0  0  0  0  0  0  0  0  0  0  0  0
   -1.5777   -1.6746    0.0000 H   0  0  0  0  0  0  0  0  0  0  0  0
   -1.8786    0.6545    0.0000 H   0  0  0  0  0  0  0  0  0  0  0  0
   -3.3529   -3.4708    0.0000 H   0  0  0  0  0  0  0  0  0  0  0  0
   -6.5400    0.7390    0.0000 H   0  0  0  0  0  0  0  0  0  0  0  0
    2.0376    1.3066    0.0000 H   0  0  0  0  0  0  0  0  0  0  0  0
    2.5216    3.7863    0.0000 H   0  0  0  0  0  0  0  0  0  0  0  0
   -2.6735    3.6840    0.0000 H   0  0  0  0  0  0  0  0  0  0  0  0
   -2.6145    0.6846    0.0000 H   0  0  0  0  0  0  0  0  0  0  0  0
    1.7949    2.0126    0.0000 H   0  0  0  0  0  0  0  0  0  0  0  0
    4.4606    1.9222    0.0000 H   0  0  0  0  0  0  0  0  0  0  0  0
    4.5629   -3.2730    0.0000 H   0  0  0  0  0  0  0  0  0  0  0  0
    1.5635   -3.3320    0.0000 H   0  0  0  0  0  0  0  0  0  0  0  0
  1  2  1  0
  1 23  1  0
  1 24  1  0
  1 25  1  0
  2  3  1  0
  2  9  1  0
  2 16  1  0
  3  4  1  0
  3 26  1  0
  3 27  1  0
  4  5  1  0
  4  8  1  0
  5  6  2  0
  5 28  1  0
  6  7  1  0
  7  8  2  0
  7 29  1  0
  9 10  2  0
  9 14  1  0
 10 11  1  0
 10 30  1  0
 11 12  2  0
 11 31  1  0
 12 13  1  0
 12 15  1  0
 13 14  2  0
 13 32  1  0
 14 33  1  0
 16 17  2  0
 16 21  1  0
 17 18  1  0
 17 34  1  0
 18 19  2  0
 18 35  1  0
 19 20  1  0
 19 22  1  0
 20 21  2  0
 20 36  1  0
 21 37  1  0
M  END
$$$$

     RDKit          2D

 37 39  0  0  0  0  0  0  0  0999 V2000
   -3.6426    1.4758    0.0000 C   0  0  0  0  0  0  0  0  0  0  0  0
   -4.6148    0.3335    0.0000 C   0  0  0  0  0  0  0  0  0  0  0  0
   -4.3279   -1.1388    0.0000 N   0  0  0  0  0  0  0  0  0  0  0  0
   -2.9979   -1.8324    0.0000 C   0  0  0  0  0  0  0  0  0  0  0  0
   -1.6264   -1.2251    0.0000 C   0  0  0  0  0  0  0  0  0  0  0  0
   -1.2461    0.2259    0.0000 N   0  0  0  0  0  0  0  0  0  0  0  0
   -2.1434    1.4279    0.0000 C   0  0  0  0  0  0  0  0  0  0  0  0
    0.2262    0.5128    0.0000 S   0  0  0  0  0  0  0  0  0  0  0  0
    0.1209    2.0091    0.0000 O   0  0  0  0  0  0  0  0  0  0  0  0
    0.6905   -0.9135    0.0000 O   0  0  0  0  0  0  0  0  0  0  0  0
    1.6985    0.7998    0.0000 C   0  0  0  0  0  0  0  0  0  0  0  0
    2.1862    2.2183    0.0000 C   0  0  0  0  0  0  0  0  0  0  0  0
    3.6585    2.5052    0.0000 C   0  0  0  0  0  0  0  0  0  0  0  0
    4.6431    1.3736    0.0000 C   0  0  0  0  0  0  0  0  0  0  0  0
    4.1555   -0.0449    0.0000 C   0  0  0  0  0  0  0  0  0  0  0  0
    2.6832   -0.3318    0.0000 C   0  0  0  0  0  0  0  0  0  0  0  0
    2.1955   -1.7503    0.0000 C   0  0  0  0  0  0  0  0  0  0  0  0
    3.1802   -2.8819    0.0000 C   0  0  0  0  0  0  0  0  0  0  0  0
    4.6525   -2.5950    0.0000 N   0  0  0  0  0  0  0  0  0  0  0  0
    5.1401   -1.1765    0.0000 C   0  0  0  0  0  0  0  0  0  0  0  0
   -4.8781    2.3264    0.0000 H   0  0  0  0  0  0  0  0  0  0  0  0
   -3.4420    2.9623    0.0000 H   0  0  0  0  0  0  0  0  0  0  0  0
   -5.9864   -0.2739    0.0000 H   0  0  0  0  0  0  0  0  0  0  0  0
   -5.6520    1.4171    0.0000 H   0  0  0  0  0  0  0  0  0  0  0  0
   -5.5299   -2.0361    0.0000 H   0  0  0  0  0  0  0  0  0  0  0  0
   -2.2538   -3.1349    0.0000 H   0  0  0  0  0  0  0  0  0  0  0  0
   -3.9701   -2.9747    0.0000 H   0  0  0  0  0  0  0  0  0  0  0  0
   -0.1441   -1.4554    0.0000 H   0  0  0  0  0  0  0  0  0  0  0  0
   -1.1621   -2.6514    0.0000 H   0  0  0  0  0  0  0  0  0  0  0  0
   -2.2487    2.9242    0.0000 H   0  0  0  0  0  0  0  0  0  0  0  0
   -0.8561    2.1979    0.0000 H   0  0  0  0  0  0  0  0  0  0  0  0
    1.2016    3.3499    0.0000 H   0  0  0  0  0  0  0  0  0  0  0  0
    4.1462    3.9237    0.0000 H   0  0  0  0  0  0  0  0  0  0  0  0
    6.1154    1.6606    0.0000 H   0  0  0  0  0  0  0  0  0  0  0  0
    0.7232   -2.0373    0.0000 H   0  0  0  0  0  0  0  0  0  0  0  0
    2.6925   -4.3004    0.0000 H   0  0  0  0  0  0  0  0  0  0  0  0
    6.6124   -0.8895    0.0000 H   0  0  0  0  0  0  0  0  0  0  0  0
  1  2  1  0
  1  7  1  0
  1 21  1  0
  1 22  1  0
  2  3  1  0
  2 23  1  0
  2 24  1  0
  3  4  1  0
  3 25  1  0
  4  5  1  0
  4 26  1  0
  4 27  1  0
  5  6  1  0
  5 28  1  0
  5 29  1  0
  6  7  1  0
  6  8  1  0
  7 30  1  0
  7 31  1  0
  8  9  2  0
  8 10  2  0
  8 11  1  0
 11 12  2  0
 11 16  1  0
 12 13  1  0
 12 32  1  0
 13 14  2  0
 13 33  1  0
 14 15  1  0
 14 34  1  0
 15 16  2  0
 15 20  1  0
 16 17  1  0
 17 18  2  0
 17 35  1  0
 18 19  1  0
 18 36  1  0
 19 20  2  0
 20 37  1  0
M  END
$$$$

     RDKit          2D

 84 89  0  0  1  0  0  0  0  0999 V2000
    2.4349   -4.7925    0.0000 C   0  0  0  0  0  0  0  0  0  0  0  0
    2.3175   -3.2971    0.0000 O   0  0  0  0  0  0  0  0  0  0  0  0
    0.9637   -2.6511    0.0000 C   0  0  0  0  0  0  0  0  0  0  0  0
    1.8350   -1.4301    0.0000 C   0  0  0  0  0  0  0  0  0  0  0  0
    1.2132   -0.0651    0.0000 C   0  0  0  0  0  0  0  0  0  0  0  0
   -0.2799    0.0790    0.0000 C   0  0  0  0  0  0  0  0  0  0  0  0
   -0.9017    1.4440    0.0000 C   0  0  0  0  0  0  0  0  0  0  0  0
   -2.3948    1.5880    0.0000 N   0  0  0  0  0  0  0  0  0  0  0  0
   -3.0166    2.9531    0.0000 C   0  0  0  0  0  0  0  0  0  0  0  0
   -4.5097    3.0971    0.0000 C   0  0  0  0  0  0  0  0  0  0  0  0
   -5.3809    1.8761    0.0000 C   0  0  0  0  0  0  0  0  0  0  0  0
   -4.7591    0.5110    0.0000 C   0  0  0  0  0  0  0  0  0  0  0  0
   -3.2660    0.3670    0.0000 C   0  0  0  0  0  0  0  0  0  0  0  0
   -2.6442   -0.9980    0.0000 C   0  0  0  0  0  0  0  0  0  0  0  0
   -1.1511   -1.1421    0.0000 C   0  0  0  0  0  0  0  0  0  0  0  0
   -0.5293   -2.5071    0.0000 C   0  0  0  0  0  0  0  0  0  0  0  0
   -0.4119   -4.0025    0.0000 C   0  0  0  0  0  0  0  0  0  0  0  0
    0.2031   -4.5097    0.0000 O   0  0  0  0  0  0  0  0  0  0  0  0
   -1.6482   -4.8519    0.0000 O   0  0  0  0  0  0  0  0  0  0  0  0
   -1.5308   -6.3473    0.0000 C   0  0  0  0  0  0  0  0  0  0  0  0
   -5.8652   -0.5022    0.0000 N   0  0  0  0  0  0  0  0  0  0  0  0
   -7.1706    0.2367    0.0000 C   0  0  0  0  0  0  0  0  0  0  0  0
   -6.8713    1.7065    0.0000 C   0  0  0  0  0  0  0  0  0  0  0  0
   -7.9946    2.7006    0.0000 C   0  0  0  0  0  0  0  0  0  0  0  0
   -9.4171    2.2249    0.0000 C   0  0  0  0  0  0  0  0  0  0  0  0
   -9.7164    0.7551    0.0000 C   0  0  0  0  0  0  0  0  0  0  0  0
   -8.5932   -0.2391    0.0000 C   0  0  0  0  0  0  0  0  0  0  0  0
  -11.1390    0.2793    0.0000 O   0  0  0  0  0  0  0  0  0  0  0  0
  -12.2623    1.2735    0.0000 C   0  0  0  0  0  0  0  0  0  0  0  0
    3.0713   -0.5807    0.0000 O   0  0  0  0  0  0  0  0  0  0  0  0
    4.4251   -1.2267    0.0000 C   0  0  0  0  0  0  0  0  0  0  0  0
    4.5425   -2.7221    0.0000 O   0  0  0  0  0  0  0  0  0  0  0  0
    5.6614   -0.3773    0.0000 C   0  0  0  0  0  0  0  0  0  0  0  0
    7.0152   -1.0233    0.0000 C   0  0  0  0  0  0  0  0  0  0  0  0
    8.2515   -0.1739    0.0000 C   0  0  0  0  0  0  0  0  0  0  0  0
    8.1341    1.3215    0.0000 C   0  0  0  0  0  0  0  0  0  0  0  0
    6.7803    1.9675    0.0000 C   0  0  0  0  0  0  0  0  0  0  0  0
    5.5440    1.1181    0.0000 C   0  0  0  0  0  0  0  0  0  0  0  0
    6.6629    3.4629    0.0000 O   0  0  0  0  0  0  0  0  0  0  0  0
    5.3091    4.1089    0.0000 C   0  0  0  0  0  0  0  0  0  0  0  0
    9.3704    2.1709    0.0000 O   0  0  0  0  0  0  0  0  0  0  0  0
    9.2530    3.6663    0.0000 C   0  0  0  0  0  0  0  0  0  0  0  0
    9.6053   -0.8199    0.0000 O   0  0  0  0  0  0  0  0  0  0  0  0
   10.8416    0.0295    0.0000 C   0  0  0  0  0  0  0  0  0  0  0  0
    1.3979   -5.1394    0.0000 H   0  0  0  0  0  0  0  0  0  0  0  0
    3.9303   -4.6751    0.0000 H   0  0  0  0  0  0  0  0  0  0  0  0
    2.5524   -6.2879    0.0000 H   0  0  0  0  0  0  0  0  0  0  0  0
    0.6713   -3.7048    0.0000 H   0  0  0  0  0  0  0  0  0  0  0  0
    2.8862   -2.5002    0.0000 H   0  0  0  0  0  0  0  0  0  0  0  0
    2.6655    0.3103    0.0000 H   0  0  0  0  0  0  0  0  0  0  0  0
    1.4611    1.4143    0.0000 H   0  0  0  0  0  0  0  0  0  0  0  0
    0.5914    1.3000    0.0000 H   0  0  0  0  0  0  0  0  0  0  0  0
   -0.8360    2.9426    0.0000 H   0  0  0  0  0  0  0  0  0  0  0  0
    0.4166    2.1596    0.0000 H   0  0  0  0  0  0  0  0  0  0  0  0
   -3.1340    4.4485    0.0000 H   0  0  0  0  0  0  0  0  0  0  0  0
   -1.6209    3.5026    0.0000 H   0  0  0  0  0  0  0  0  0  0  0  0
   -5.8634    3.7431    0.0000 H   0  0  0  0  0  0  0  0  0  0  0  0
   -4.1086    4.5425    0.0000 H   0  0  0  0  0  0  0  0  0  0  0  0
   -4.2796   -0.7387    0.0000 H   0  0  0  0  0  0  0  0  0  0  0  0
   -2.8921   -2.4774    0.0000 H   0  0  0  0  0  0  0  0  0  0  0  0
   -4.0399   -1.5476    0.0000 H   0  0  0  0  0  0  0  0  0  0  0  0
   -2.0224   -2.3631    0.0000 H   0  0  0  0  0  0  0  0  0  0  0  0
   -1.8476   -3.2227    0.0000 H   0  0  0  0  0  0  0  0  0  0  0  0
   -3.0262   -6.4647    0.0000 H   0  0  0  0  0  0  0  0  0  0  0  0
   -0.0354   -6.2299    0.0000 H   0  0  0  0  0  0  0  0  0  0  0  0
   -1.4133   -7.8427    0.0000 H   0  0  0  0  0  0  0  0  0  0  0  0
   -5.6956   -1.9926    0.0000 H   0  0  0  0  0  0  0  0  0  0  0  0
   -7.6953    4.1705    0.0000 H   0  0  0  0  0  0  0  0  0  0  0  0
  -10.5404    3.2190    0.0000 H   0  0  0  0  0  0  0  0  0  0  0  0
   -8.8925   -1.7089    0.0000 H   0  0  0  0  0  0  0  0  0  0  0  0
  -13.2564    0.1502    0.0000 H   0  0  0  0  0  0  0  0  0  0  0  0
  -11.2681    2.3967    0.0000 H   0  0  0  0  0  0  0  0  0  0  0  0
  -13.3855    2.2676    0.0000 H   0  0  0  0  0  0  0  0  0  0  0  0
    7.1326   -2.5187    0.0000 H   0  0  0  0  0  0  0  0  0  0  0  0
    4.1902    1.7641    0.0000 H   0  0  0  0  0  0  0  0  0  0  0  0
    5.9551    5.4627    0.0000 H   0  0  0  0  0  0  0  0  0  0  0  0
    4.6631    2.7551    0.0000 H   0  0  0  0  0  0  0  0  0  0  0  0
    3.9553    4.7549    0.0000 H   0  0  0  0  0  0  0  0  0  0  0  0
   10.7484    3.7838    0.0000 H   0  0  0  0  0  0  0  0  0  0  0  0
    7.7576    3.5489    0.0000 H   0  0  0  0  0  0  0  0  0  0  0  0
    9.1355    5.1617    0.0000 H   0  0  0  0  0  0  0  0  0  0  0  0
   11.6910   -1.2068    0.0000 H   0  0  0  0  0  0  0  0  0  0  0  0
    9.9922    1.2659    0.0000 H   0  0  0  0  0  0  0  0  0  0  0  0
   12.0780    0.8789    0.0000 H   0  0  0  0  0  0  0  0  0  0  0  0
  1  2  1  0
  1 45  1  0
  1 46  1  0
  1 47  1  0
  3  4  1  0
  3 16  1  0
  3 48  1  1
  3  2  1  0
  4  5  1  0
  4 30  1  0
  4 49  1  6
  5  6  1  0
  5 50  1  0
  5 51  1  0
  6  7  1  0
  6 15  1  0
  6 52  1  6
  7  8  1  0
  7 53  1  0
  7 54  1  0
  8  9  1  0
  8 13  1  0
  9 10  1  0
  9 55  1  0
  9 56  1  0
 10 11  1  0
 10 57  1  0
 10 58  1  0
 11 12  2  0
 11 23  1  0
 12 13  1  0
 12 21  1  0
 13 14  1  0
 13 59  1  1
 14 15  1  0
 14 60  1  0
 14 61  1  0
 15 16  1  0
 15 62  1  6
 16 63  1  6
 16 17  1  0
 17 18  2  0
 17 19  1  0
 19 20  1  0
 20 64  1  0
 20 65  1  0
 20 66  1  0
 21 22  1  0
 21 67  1  0
 22 23  2  0
 22 27  1  0
 23 24  1  0
 24 25  2  0
 24 68  1  0
 25 26  1  0
 25 69  1  0
 26 27  2  0
 26 28  1  0
 27 70  1  0
 28 29  1  0
 29 71  1  0
 29 72  1  0
 29 73  1  0
 30 31  1  0
 31 32  2  0
 31 33  1  0
 33 34  2  0
 33 38  1  0
 34 35  1  0
 34 74  1  0
 35 36  2  0
 35 43  1  0
 36 37  1  0
 36 41  1  0
 37 38  2  0
 37 39  1  0
 38 75  1  0
 39 40  1  0
 40 76  1  0
 40 77  1  0
 40 78  1  0
 41 42  1  0
 42 79  1  0
 42 80  1  0
 42 81  1  0
 43 44  1  0
 44 82  1  0
 44 83  1  0
 44 84  1  0
M  END
$$$$

     RDKit          2D

 39 40  0  0  0  0  0  0  0  0999 V2000
   -4.6646   -2.8259    0.0000 C   0  0  0  0  0  0  0  0  0  0  0  0
   -3.4816   -1.9037    0.0000 C   0  0  0  0  0  0  0  0  0  0  0  0
   -2.2987   -0.9814    0.0000 C   0  0  0  0  0  0  0  0  0  0  0  0
   -1.1157   -0.0591    0.0000 N   0  0  0  0  0  0  0  0  0  0  0  0
    0.2745   -0.6224    0.0000 C   0  0  0  0  0  0  0  0  0  0  0  0
    1.6647   -1.1858    0.0000 C   0  0  0  0  0  0  0  0  0  0  0  0
    3.0549   -1.7491    0.0000 O   0  0  0  0  0  0  0  0  0  0  0  0
    4.2379   -0.8268    0.0000 C   0  0  0  0  0  0  0  0  0  0  0  0
    5.6281   -1.3902    0.0000 C   0  0  0  0  0  0  0  0  0  0  0  0
    6.8110   -0.4679    0.0000 C   0  0  0  0  0  0  0  0  0  0  0  0
    6.6038    1.0177    0.0000 C   0  0  0  0  0  0  0  0  0  0  0  0
    5.2136    1.5810    0.0000 C   0  0  0  0  0  0  0  0  0  0  0  0
    4.0306    0.6588    0.0000 C   0  0  0  0  0  0  0  0  0  0  0  0
    2.6404    1.2221    0.0000 Cl  0  0  0  0  0  0  0  0  0  0  0  0
    7.7868    1.9400    0.0000 Cl  0  0  0  0  0  0  0  0  0  0  0  0
    5.8353   -2.8758    0.0000 Cl  0  0  0  0  0  0  0  0  0  0  0  0
   -1.3229    1.4265    0.0000 C   0  0  0  0  0  0  0  0  0  0  0  0
   -0.1400    2.3488    0.0000 O   0  0  0  0  0  0  0  0  0  0  0  0
   -2.7131    1.9898    0.0000 N   0  0  0  0  0  0  0  0  0  0  0  0
   -3.0745    3.4457    0.0000 C   0  0  0  0  0  0  0  0  0  0  0  0
   -4.5707    3.5518    0.0000 C   0  0  0  0  0  0  0  0  0  0  0  0
   -5.1341    2.1616    0.0000 N   0  0  0  0  0  0  0  0  0  0  0  0
   -3.9860    1.1963    0.0000 C   0  0  0  0  0  0  0  0  0  0  0  0
   -5.5869   -1.6430    0.0000 H   0  0  0  0  0  0  0  0  0  0  0  0
   -3.7423   -4.0089    0.0000 H   0  0  0  0  0  0  0  0  0  0  0  0
   -5.8475   -3.7482    0.0000 H   0  0  0  0  0  0  0  0  0  0  0  0
   -2.5593   -3.0866    0.0000 H   0  0  0  0  0  0  0  0  0  0  0  0
   -4.3399   -1.0437    0.0000 H   0  0  0  0  0  0  0  0  0  0  0  0
   -1.3764   -2.1644    0.0000 H   0  0  0  0  0  0  0  0  0  0  0  0
   -3.2209    0.2016    0.0000 H   0  0  0  0  0  0  0  0  0  0  0  0
   -0.2888   -2.0126    0.0000 H   0  0  0  0  0  0  0  0  0  0  0  0
    0.8378    0.7677    0.0000 H   0  0  0  0  0  0  0  0  0  0  0  0
    1.1014   -2.5760    0.0000 H   0  0  0  0  0  0  0  0  0  0  0  0
    2.2280    0.2044    0.0000 H   0  0  0  0  0  0  0  0  0  0  0  0
    8.2012   -1.0312    0.0000 H   0  0  0  0  0  0  0  0  0  0  0  0
    5.0064    3.0667    0.0000 H   0  0  0  0  0  0  0  0  0  0  0  0
   -2.1091    4.5937    0.0000 H   0  0  0  0  0  0  0  0  0  0  0  0
   -5.3643    4.8247    0.0000 H   0  0  0  0  0  0  0  0  0  0  0  0
   -4.2191    0.0038    0.0000 H   0  0  0  0  0  0  0  0  0  0  0  0
  1  2  1  0
  1 24  1  0
  1 25  1  0
  1 26  1  0
  2  3  1  0
  2 27  1  0
  2 28  1  0
  3  4  1  0
  3 29  1  0
  3 30  1  0
  4  5  1  0
  4 17  1  0
  5  6  1  0
  5 31  1  0
  5 32  1  0
  6  7  1  0
  6 33  1  0
  6 34  1  0
  7  8  1  0
  8  9  2  0
  8 13  1  0
  9 10  1  0
  9 16  1  0
 10 11  2  0
 10 35  1  0
 11 12  1  0
 11 15  1  0
 12 13  2  0
 12 36  1  0
 13 14  1  0
 17 18  2  0
 17 19  1  0
 19 20  1  0
 19 23  1  0
 20 21  2  0
 20 37  1  0
 21 22  1  0
 21 38  1  0
 22 23  2  0
 23 39  1  0
M  END
$$$$

     RDKit          2D

 38 40  0  0  1  0  0  0  0  0999 V2000
    3.5488   -3.4627    0.0000 C   0  0  0  0  0  0  0  0  0  0  0  0
    2.2972   -2.6358    0.0000 C   0  0  0  0  0  0  0  0  0  0  0  0
    1.0457   -1.8089    0.0000 O   0  0  0  0  0  0  0  0  0  0  0  0
    1.1361   -0.3116    0.0000 C   0  0  0  0  0  0  0  0  0  0  0  0
    1.9708   -0.0153    0.0000 O   0  0  0  0  0  0  0  0  0  0  0  0
   -0.1154    0.5152    0.0000 C   0  0  0  0  0  0  0  0  0  0  0  0
   -0.8069   -0.8158    0.0000 C   0  0  0  0  0  0  0  0  0  0  0  0
   -2.2866   -0.5695    0.0000 C   0  0  0  0  0  0  0  0  0  0  0  0
   -3.4597   -1.5042    0.0000 C   0  0  0  0  0  0  0  0  0  0  0  0
   -4.8558   -0.9556    0.0000 C   0  0  0  0  0  0  0  0  0  0  0  0
   -5.0787    0.5278    0.0000 C   0  0  0  0  0  0  0  0  0  0  0  0
   -3.9056    1.4625    0.0000 C   0  0  0  0  0  0  0  0  0  0  0  0
   -2.5095    0.9139    0.0000 C   0  0  0  0  0  0  0  0  0  0  0  0
   -1.1676    1.5843    0.0000 O   0  0  0  0  0  0  0  0  0  0  0  0
   -1.2066   -2.2616    0.0000 N   0  0  0  0  0  0  0  0  0  0  0  0
    0.8378    1.6735    0.0000 C   0  0  0  0  0  0  0  0  0  0  0  0
    2.3174    1.4271    0.0000 C   0  0  0  0  0  0  0  0  0  0  0  0
    3.2706    2.5853    0.0000 C   0  0  0  0  0  0  0  0  0  0  0  0
    2.7441    3.9899    0.0000 C   0  0  0  0  0  0  0  0  0  0  0  0
    1.2645    4.2362    0.0000 C   0  0  0  0  0  0  0  0  0  0  0  0
    0.3113    3.0780    0.0000 C   0  0  0  0  0  0  0  0  0  0  0  0
    4.3756   -2.2112    0.0000 H   0  0  0  0  0  0  0  0  0  0  0  0
    2.7219   -4.7142    0.0000 H   0  0  0  0  0  0  0  0  0  0  0  0
    4.8003   -4.2896    0.0000 H   0  0  0  0  0  0  0  0  0  0  0  0
    1.4704   -3.8873    0.0000 H   0  0  0  0  0  0  0  0  0  0  0  0
    3.1241   -1.3843    0.0000 H   0  0  0  0  0  0  0  0  0  0  0  0
    0.0838   -1.4502    0.0000 H   0  0  0  0  0  0  0  0  0  0  0  0
   -3.4233   -2.8537    0.0000 H   0  0  0  0  0  0  0  0  0  0  0  0
   -6.0289   -1.8903    0.0000 H   0  0  0  0  0  0  0  0  0  0  0  0
   -6.4748    1.0764    0.0000 H   0  0  0  0  0  0  0  0  0  0  0  0
   -4.1285    2.9458    0.0000 H   0  0  0  0  0  0  0  0  0  0  0  0
   -0.1544   -3.3306    0.0000 H   0  0  0  0  0  0  0  0  0  0  0  0
   -2.4623   -2.7574    0.0000 H   0  0  0  0  0  0  0  0  0  0  0  0
    2.7271    0.6418    0.0000 H   0  0  0  0  0  0  0  0  0  0  0  0
    4.7502    2.3389    0.0000 H   0  0  0  0  0  0  0  0  0  0  0  0
    3.6973    5.1481    0.0000 H   0  0  0  0  0  0  0  0  0  0  0  0
    0.7380    5.6408    0.0000 H   0  0  0  0  0  0  0  0  0  0  0  0
   -1.1683    3.3244    0.0000 H   0  0  0  0  0  0  0  0  0  0  0  0
  1  2  1  0
  1 22  1  0
  1 23  1  0
  1 24  1  0
  2  3  1  0
  2 25  1  0
  2 26  1  0
  3  4  1  0
  4  5  2  0
  6  4  1  1
  6  7  1  0
  6 14  1  0
  6 16  1  0
  7  8  1  0
  7 27  1  6
  7 15  1  0
  8  9  1  0
  8 13  2  0
  9 10  2  0
  9 28  1  0
 10 11  1  0
 10 29  1  0
 11 12  2  0
 11 30  1  0
 12 13  1  0
 12 31  1  0
 13 14  1  0
 15 32  1  0
 15 33  1  0
 16 17  2  0
 16 21  1  0
 17 18  1  0
 17 34  1  0
 18 19  2  0
 18 35  1  0
 19 20  1  0
 19 36  1  0
 20 21  2  0
 20 37  1  0
 21 38  1  0
M  END
$$$$

     RDKit          2D

 35 37  0  0  0  0  0  0  0  0999 V2000
    1.5732   -2.7859    0.0000 C   0  0  0  0  0  0  0  0  0  0  0  0
    1.4213   -1.2936    0.0000 C   0  0  0  0  0  0  0  0  0  0  0  0
    0.0530   -0.6790    0.0000 C   0  0  0  0  0  0  0  0  0  0  0  0
   -1.1634   -1.5567    0.0000 C   0  0  0  0  0  0  0  0  0  0  0  0
   -1.0115   -3.0490    0.0000 N   0  0  0  0  0  0  0  0  0  0  0  0
    0.3568   -3.6636    0.0000 C   0  0  0  0  0  0  0  0  0  0  0  0
   -0.0989    0.8133    0.0000 C   0  0  0  0  0  0  0  0  0  0  0  0
   -1.5912    0.6614    0.0000 C   0  0  0  0  0  0  0  0  0  0  0  0
   -2.4689    1.8778    0.0000 C   0  0  0  0  0  0  0  0  0  0  0  0
   -3.9612    1.7259    0.0000 C   0  0  0  0  0  0  0  0  0  0  0  0
   -4.5757    0.3576    0.0000 C   0  0  0  0  0  0  0  0  0  0  0  0
   -3.6981   -0.8589    0.0000 C   0  0  0  0  0  0  0  0  0  0  0  0
   -2.2058   -0.7070    0.0000 C   0  0  0  0  0  0  0  0  0  0  0  0
   -6.0680    0.2057    0.0000 Cl  0  0  0  0  0  0  0  0  0  0  0  0
    1.3934    0.9652    0.0000 C   0  0  0  0  0  0  0  0  0  0  0  0
    2.2711   -0.2513    0.0000 C   0  0  0  0  0  0  0  0  0  0  0  0
    3.7634   -0.0994    0.0000 C   0  0  0  0  0  0  0  0  0  0  0  0
    4.3780    1.2690    0.0000 C   0  0  0  0  0  0  0  0  0  0  0  0
    3.5003    2.4854    0.0000 C   0  0  0  0  0  0  0  0  0  0  0  0
    2.0080    2.3335    0.0000 C   0  0  0  0  0  0  0  0  0  0  0  0
    5.8703    1.4209    0.0000 Cl  0  0  0  0  0  0  0  0  0  0  0  0
   -0.2508    2.3055    0.0000 O   0  0  0  0  0  0  0  0  0  0  0  0
    2.9415   -3.4005    0.0000 H   0  0  0  0  0  0  0  0  0  0  0  0
    2.1614   -0.9975    0.0000 H   0  0  0  0  0  0  0  0  0  0  0  0
   -2.6398   -1.2915    0.0000 H   0  0  0  0  0  0  0  0  0  0  0  0
    0.5087   -5.1559    0.0000 H   0  0  0  0  0  0  0  0  0  0  0  0
   -2.0256    3.3108    0.0000 H   0  0  0  0  0  0  0  0  0  0  0  0
   -4.8388    2.9423    0.0000 H   0  0  0  0  0  0  0  0  0  0  0  0
   -4.3126   -2.2272    0.0000 H   0  0  0  0  0  0  0  0  0  0  0  0
   -1.6485   -2.0996    0.0000 H   0  0  0  0  0  0  0  0  0  0  0  0
    2.0059   -1.7276    0.0000 H   0  0  0  0  0  0  0  0  0  0  0  0
    4.6411   -1.3158    0.0000 H   0  0  0  0  0  0  0  0  0  0  0  0
    4.1149    3.8537    0.0000 H   0  0  0  0  0  0  0  0  0  0  0  0
    1.1303    3.5499    0.0000 H   0  0  0  0  0  0  0  0  0  0  0  0
   -1.5340    3.0824    0.0000 H   0  0  0  0  0  0  0  0  0  0  0  0
  1  2  2  0
  1  6  1  0
  1 23  1  0
  2  3  1  0
  2 24  1  0
  3  4  2  0
  3  7  1  0
  4  5  1  0
  4 25  1  0
  5  6  2  0
  6 26  1  0
  7  8  1  0
  7 15  1  0
  7 22  1  0
  8  9  2  0
  8 13  1  0
  9 10  1  0
  9 27  1  0
 10 11  2  0
 10 28  1  0
 11 12  1  0
 11 14  1  0
 12 13  2  0
 12 29  1  0
 13 30  1  0
 15 16  2  0
 15 20  1  0
 16 17  1  0
 16 31  1  0
 17 18  2  0
 17 32  1  0
 18 19  1  0
 18 21  1  0
 19 20  2  0
 19 33  1  0
 20 34  1  0
 22 35  1  0
M  END
$$$$

     RDKit          2D

 27 30  0  0  0  0  0  0  0  0999 V2000
   -3.9174   -0.4709    0.0000 C   0  0  0  0  0  0  0  0  0  0  0  0
   -3.3616    0.9224    0.0000 C   0  0  0  0  0  0  0  0  0  0  0  0
   -1.8771    1.1376    0.0000 C   0  0  0  0  0  0  0  0  0  0  0  0
   -0.9485   -0.0403    0.0000 C   0  0  0  0  0  0  0  0  0  0  0  0
   -1.5043   -1.4335    0.0000 C   0  0  0  0  0  0  0  0  0  0  0  0
   -2.9887   -1.6488    0.0000 C   0  0  0  0  0  0  0  0  0  0  0  0
   -0.5756   -2.6115    0.0000 C   0  0  0  0  0  0  0  0  0  0  0  0
    0.9089   -2.3962    0.0000 C   0  0  0  0  0  0  0  0  0  0  0  0
    1.4647   -1.0030    0.0000 C   0  0  0  0  0  0  0  0  0  0  0  0
    2.9491   -0.7877    0.0000 C   0  0  0  0  0  0  0  0  0  0  0  0
    3.5049    0.6055    0.0000 C   0  0  0  0  0  0  0  0  0  0  0  0
    2.5763    1.7835    0.0000 C   0  0  0  0  0  0  0  0  0  0  0  0
    1.0918    1.5682    0.0000 C   0  0  0  0  0  0  0  0  0  0  0  0
    0.5360    0.1750    0.0000 C   0  0  0  0  0  0  0  0  0  0  0  0
    0.1631    2.7461    0.0000 C   0  0  0  0  0  0  0  0  0  0  0  0
   -1.3214    2.5309    0.0000 C   0  0  0  0  0  0  0  0  0  0  0  0
    3.8778   -1.9657    0.0000 O   0  0  0  0  0  0  0  0  0  0  0  0
   -5.4019   -0.6862    0.0000 H   0  0  0  0  0  0  0  0  0  0  0  0
   -4.2903    2.1003    0.0000 H   0  0  0  0  0  0  0  0  0  0  0  0
   -3.5445   -3.0421    0.0000 H   0  0  0  0  0  0  0  0  0  0  0  0
   -1.1314   -4.0047    0.0000 H   0  0  0  0  0  0  0  0  0  0  0  0
    1.8375   -3.5742    0.0000 H   0  0  0  0  0  0  0  0  0  0  0  0
    4.9894    0.8208    0.0000 H   0  0  0  0  0  0  0  0  0  0  0  0
    3.1321    3.1767    0.0000 H   0  0  0  0  0  0  0  0  0  0  0  0
    0.7189    4.1394    0.0000 H   0  0  0  0  0  0  0  0  0  0  0  0
   -2.2500    3.7088    0.0000 H   0  0  0  0  0  0  0  0  0  0  0  0
    5.3623   -1.7504    0.0000 H   0  0  0  0  0  0  0  0  0  0  0  0
  1  2  2  0
  1  6  1  0
  1 18  1  0
  2  3  1  0
  2 19  1  0
  3  4  2  0
  3 16  1  0
  4  5  1  0
  4 14  1  0
  5  6  2  0
  5  7  1  0
  6 20  1  0
  7  8  2  0
  7 21  1  0
  8  9  1  0
  8 22  1  0
  9 10  1  0
  9 14  2  0
 10 11  2  0
 10 17  1  0
 11 12  1  0
 11 23  1  0
 12 13  2  0
 12 24  1  0
 13 14  1  0
 13 15  1  0
 15 16  2  0
 15 25  1  0
 16 26  1  0
 17 27  1  0
M  END
$$$$

     RDKit          2D

 37 39  0  0  0  0  0  0  0  0999 V2000
    0.0421   -2.2637    0.0000 C   0  0  0  0  0  0  0  0  0  0  0  0
    0.0126   -0.7640    0.0000 Si  0  0  0  0  0  4  0  0  0  0  0  0
   -1.4871   -0.7935    0.0000 C   0  0  0  0  0  0  0  0  0  0  0  0
   -2.9868   -0.8230    0.0000 N   0  0  0  0  0  0  0  0  0  0  0  0
   -3.8444   -2.0536    0.0000 C   0  0  0  0  0  0  0  0  0  0  0  0
   -5.2799   -1.6183    0.0000 N   0  0  0  0  0  0  0  0  0  0  0  0
   -5.3094   -0.1186    0.0000 C   0  0  0  0  0  0  0  0  0  0  0  0
   -3.8922    0.3729    0.0000 N   0  0  0  0  0  0  0  0  0  0  0  0
   -0.0169    0.7358    0.0000 C   0  0  0  0  0  0  0  0  0  0  0  0
    1.2671    1.5112    0.0000 C   0  0  0  0  0  0  0  0  0  0  0  0
    1.2376    3.0109    0.0000 C   0  0  0  0  0  0  0  0  0  0  0  0
   -0.0759    3.7352    0.0000 C   0  0  0  0  0  0  0  0  0  0  0  0
   -1.3600    2.9597    0.0000 C   0  0  0  0  0  0  0  0  0  0  0  0
   -1.3304    1.4600    0.0000 C   0  0  0  0  0  0  0  0  0  0  0  0
   -0.1055    5.2349    0.0000 F   0  0  0  0  0  0  0  0  0  0  0  0
    1.5123   -0.7344    0.0000 C   0  0  0  0  0  0  0  0  0  0  0  0
    2.2366    0.5791    0.0000 C   0  0  0  0  0  0  0  0  0  0  0  0
    3.7363    0.6086    0.0000 C   0  0  0  0  0  0  0  0  0  0  0  0
    4.5118   -0.6754    0.0000 C   0  0  0  0  0  0  0  0  0  0  0  0
    3.7875   -1.9889    0.0000 C   0  0  0  0  0  0  0  0  0  0  0  0
    2.2878   -2.0185    0.0000 C   0  0  0  0  0  0  0  0  0  0  0  0
    6.0115   -0.6459    0.0000 F   0  0  0  0  0  0  0  0  0  0  0  0
    1.5044   -2.5979    0.0000 H   0  0  0  0  0  0  0  0  0  0  0  0
   -0.8347   -2.3889    0.0000 H   0  0  0  0  0  0  0  0  0  0  0  0
    0.0717   -3.7634    0.0000 H   0  0  0  0  0  0  0  0  0  0  0  0
   -1.5777   -1.6746    0.0000 H   0  0  0  0  0  0  0  0  0  0  0  0
   -1.8786    0.6545    0.0000 H   0  0  0  0  0  0  0  0  0  0  0  0
   -3.3529   -3.4708    0.0000 H   0  0  0  0  0  0  0  0  0  0  0  0
   -6.5400    0.7390    0.0000 H   0  0  0  0  0  0  0  0  0  0  0  0
    2.0376    1.3066    0.0000 H   0  0  0  0  0  0  0  0  0  0  0  0
    2.5216    3.7863    0.0000 H   0  0  0  0  0  0  0  0  0  0  0  0
   -2.6735    3.6840    0.0000 H   0  0  0  0  0  0  0  0  0  0  0  0
   -2.6145    0.6846    0.0000 H   0  0  0  0  0  0  0  0  0  0  0  0
    1.7949    2.0126    0.0000 H   0  0  0  0  0  0  0  0  0  0  0  0
    4.4606    1.9222    0.0000 H   0  0  0  0  0  0  0  0  0  0  0  0
    4.5629   -3.2730    0.0000 H   0  0  0  0  0  0  0  0  0  0  0  0
    1.5635   -3.3320    0.0000 H   0  0  0  0  0  0  0  0  0  0  0  0
  1  2  1  0
  1 23  1  0
  1 24  1  0
  1 25  1  0
  2  3  1  0
  2  9  1  0
  2 16  1  0
  3  4  1  0
  3 26  1  0
  3 27  1  0
  4  5  1  0
  4  8  1  0
  5  6  2  0
  5 28  1  0
  6  7  1  0
  7  8  2  0
  7 29  1  0
  9 10  2  0
  9 14  1  0
 10 11  1  0
 10 30  1  0
 11 12  2  0
 11 31  1  0
 12 13  1  0
 12 15  1  0
 13 14  2  0
 13 32  1  0
 14 33  1  0
 16 17  2  0
 16 21  1  0
 17 18  1  0
 17 34  1  0
 18 19  2  0
 18 35  1  0
 19 20  1  0
 19 22  1  0
 20 21  2  0
 20 36  1  0
 21 37  1  0
M  END
$$$$

     RDKit          2D

 39 41  0  0  1  0  0  0  0  0999 V2000
   -2.5726   -1.9147    0.0000 C   0  0  0  0  0  0  0  0  0  0  0  0
   -1.6869   -0.7041    0.0000 C   0  0  0  0  0  0  0  0  0  0  0  0
   -1.0723    0.6642    0.0000 C   0  0  0  0  0  0  0  0  0  0  0  0
   -1.4538    1.5714    0.0000 O   0  0  0  0  0  0  0  0  0  0  0  0
    0.4190    0.5024    0.0000 N   0  0  0  0  0  0  0  0  0  0  0  0
    0.7260   -0.9658    0.0000 C   0  0  0  0  0  0  0  0  0  0  0  0
   -0.5755   -1.7115    0.0000 N   0  0  0  0  0  0  0  0  0  0  0  0
    2.0943   -1.5805    0.0000 S   0  0  0  0  0  0  0  0  0  0  0  0
    2.2461   -3.0728    0.0000 C   0  0  0  0  0  0  0  0  0  0  0  0
    1.4264    1.6138    0.0000 N   0  0  0  0  0  0  0  0  0  0  0  0
    2.8926    1.2971    0.0000 C   0  0  0  0  0  0  0  0  0  0  0  0
    3.3514   -0.1310    0.0000 C   0  0  0  0  0  0  0  0  0  0  0  0
    4.8175   -0.4478    0.0000 C   0  0  0  0  0  0  0  0  0  0  0  0
    5.8249    0.6636    0.0000 C   0  0  0  0  0  0  0  0  0  0  0  0
    5.3661    2.0917    0.0000 C   0  0  0  0  0  0  0  0  0  0  0  0
    3.9000    2.4085    0.0000 C   0  0  0  0  0  0  0  0  0  0  0  0
   -2.9834    0.0502    0.0000 C   0  0  0  0  0  0  0  0  0  0  0  0
   -2.9785    1.5502    0.0000 C   0  0  0  0  0  0  0  0  0  0  0  0
   -4.2750    2.3045    0.0000 C   0  0  0  0  0  0  0  0  0  0  0  0
   -5.5765    1.5588    0.0000 C   0  0  0  0  0  0  0  0  0  0  0  0
   -5.5815    0.0588    0.0000 C   0  0  0  0  0  0  0  0  0  0  0  0
   -4.2850   -0.6955    0.0000 C   0  0  0  0  0  0  0  0  0  0  0  0
   -1.3620   -2.8004    0.0000 H   0  0  0  0  0  0  0  0  0  0  0  0
   -3.8227   -1.4049    0.0000 H   0  0  0  0  0  0  0  0  0  0  0  0
   -3.4583   -3.1253    0.0000 H   0  0  0  0  0  0  0  0  0  0  0  0
    3.7384   -2.9209    0.0000 H   0  0  0  0  0  0  0  0  0  0  0  0
    0.7538   -3.2246    0.0000 H   0  0  0  0  0  0  0  0  0  0  0  0
    2.3979   -4.5651    0.0000 H   0  0  0  0  0  0  0  0  0  0  0  0
    0.9676    3.0419    0.0000 H   0  0  0  0  0  0  0  0  0  0  0  0
    2.8865   -0.9985    0.0000 H   0  0  0  0  0  0  0  0  0  0  0  0
    5.2763   -1.8759    0.0000 H   0  0  0  0  0  0  0  0  0  0  0  0
    7.2911    0.3469    0.0000 H   0  0  0  0  0  0  0  0  0  0  0  0
    6.3735    3.2031    0.0000 H   0  0  0  0  0  0  0  0  0  0  0  0
    3.4412    3.8366    0.0000 H   0  0  0  0  0  0  0  0  0  0  0  0
   -2.1905    2.1399    0.0000 H   0  0  0  0  0  0  0  0  0  0  0  0
   -4.2700    3.8045    0.0000 H   0  0  0  0  0  0  0  0  0  0  0  0
   -6.8731    2.3131    0.0000 H   0  0  0  0  0  0  0  0  0  0  0  0
   -6.8830   -0.6868    0.0000 H   0  0  0  0  0  0  0  0  0  0  0  0
   -4.2900   -2.1955    0.0000 H   0  0  0  0  0  0  0  0  0  0  0  0
  1 23  1  0
  1 24  1  0
  1 25  1  0
  2  1  1  6
  2  3  1  0
  2  7  1  0
  2 17  1  0
  3  4  2  0
  3  5  1  0
  5  6  1  0
  5 10  1  0
  6  7  2  0
  6  8  1  0
  8  9  1  0
  9 26  1  0
  9 27  1  0
  9 28  1  0
 10 11  1  0
 10 29  1  0
 11 12  2  0
 11 16  1  0
 12 13  1  0
 12 30  1  0
 13 14  2  0
 13 31  1  0
 14 15  1  0
 14 32  1  0
 15 16  2  0
 15 33  1  0
 16 34  1  0
 17 18  2  0
 17 22  1  0
 18 19  1  0
 18 35  1  0
 19 20  2  0
 19 36  1  0
 20 21  1  0
 20 37  1  0
 21 22  2  0
 21 38  1  0
 22 39  1  0
M  END
$$$$

     RDKit          2D

 16 17  0  0  0  0  0  0  0  0999 V2000
   -2.9206   -1.0250    0.0000 C   0  0  0  0  0  0  0  0  0  0  0  0
   -1.6436   -1.8119    0.0000 N   0  0  0  0  0  0  0  0  0  0  0  0
   -0.5006   -0.8405    0.0000 C   0  0  0  0  0  0  0  0  0  0  0  0
   -1.0712    0.5467    0.0000 C   0  0  0  0  0  0  0  0  0  0  0  0
   -2.5669    0.4327    0.0000 N   0  0  0  0  0  0  0  0  0  0  0  0
   -0.1551    1.7345    0.0000 C   0  0  0  0  0  0  0  0  0  0  0  0
   -0.7257    3.1217    0.0000 S   0  0  0  0  0  0  0  0  0  0  0  0
    1.3316    1.5351    0.0000 N   0  0  0  0  0  0  0  0  0  0  0  0
    1.9022    0.1478    0.0000 C   0  0  0  0  0  0  0  0  0  0  0  0
    0.9861   -1.0399    0.0000 N   0  0  0  0  0  0  0  0  0  0  0  0
    3.3888   -0.0516    0.0000 N   0  0  0  0  0  0  0  0  0  0  0  0
   -4.3078   -1.5956    0.0000 H   0  0  0  0  0  0  0  0  0  0  0  0
   -3.5382    1.5757    0.0000 H   0  0  0  0  0  0  0  0  0  0  0  0
    1.5567   -2.4272    0.0000 H   0  0  0  0  0  0  0  0  0  0  0  0
    3.9595   -1.4388    0.0000 H   0  0  0  0  0  0  0  0  0  0  0  0
    4.3049    1.1362    0.0000 H   0  0  0  0  0  0  0  0  0  0  0  0
  1  2  2  0
  1  5  1  0
  1 12  1  0
  2  3  1  0
  3  4  2  0
  3 10  1  0
  4  5  1  0
  4  6  1  0
  5 13  1  0
  6  7  2  0
  6  8  1  0
  8  9  2  0
  9 10  1  0
  9 11  1  0
 10 14  1  0
 11 15  1  0
 11 16  1  0
M  END
$$$$

     RDKit          2D

 25 26  0  0  0  0  0  0  0  0999 V2000
   -2.2500   -1.2990    0.0000 C   0  0  0  0  0  0  0  0  0  0  0  0
   -3.7500   -1.2990    0.0000 C   0  0  0  0  0  0  0  0  0  0  0  0
   -4.5000    0.0000    0.0000 C   0  0  0  0  0  0  0  0  0  0  0  0
   -3.7500    1.2990    0.0000 C   0  0  0  0  0  0  0  0  0  0  0  0
   -2.2500    1.2990    0.0000 C   0  0  0  0  0  0  0  0  0  0  0  0
   -1.5000    0.0000    0.0000 C   0  0  0  0  0  0  0  0  0  0  0  0
   -0.0000    0.0000    0.0000 S   0  0  0  0  0  0  0  0  0  0  0  0
    0.0000   -1.5000    0.0000 O   0  0  0  0  0  0  0  0  0  0  0  0
   -0.0000    1.5000    0.0000 O   0  0  0  0  0  0  0  0  0  0  0  0
    1.5000    0.0000    0.0000 C   0  0  0  0  0  0  0  0  0  0  0  0
    2.2500   -1.2990    0.0000 C   0  0  0  0  0  0  0  0  0  0  0  0
    3.7500   -1.2990    0.0000 C   0  0  0  0  0  0  0  0  0  0  0  0
    4.5000    0.0000    0.0000 C   0  0  0  0  0  0  0  0  0  0  0  0
    3.7500    1.2990    0.0000 C   0  0  0  0  0  0  0  0  0  0  0  0
    2.2500    1.2990    0.0000 C   0  0  0  0  0  0  0  0  0  0  0  0
    1.5000    2.5981    0.0000 Cl  0  0  0  0  0  0  0  0  0  0  0  0
    6.0000    0.0000    0.0000 Cl  0  0  0  0  0  0  0  0  0  0  0  0
    4.5000   -2.5981    0.0000 Cl  0  0  0  0  0  0  0  0  0  0  0  0
   -6.0000    0.0000    0.0000 Cl  0  0  0  0  0  0  0  0  0  0  0  0
   -1.5000   -2.5981    0.0000 H   0  0  0  0  0  0  0  0  0  0  0  0
   -4.5000   -2.5981    0.0000 H   0  0  0  0  0  0  0  0  0  0  0  0
   -4.5000    2.5981    0.0000 H   0  0  0  0  0  0  0  0  0  0  0  0
   -1.5000    2.5981    0.0000 H   0  0  0  0  0  0  0  0  0  0  0  0
    1.5000   -2.5981    0.0000 H   0  0  0  0  0  0  0  0  0  0  0  0
    4.5000    2.5981    0.0000 H   0  0  0  0  0  0  0  0  0  0  0  0
  1  2  2  0
  1  6  1  0
  1 20  1  0
  2  3  1  0
  2 21  1  0
  3  4  2  0
  3 19  1  0
  4  5  1  0
  4 22  1  0
  5  6  2  0
  5 23  1  0
  6  7  1  0
  7  8  2  0
  7  9  2  0
  7 10  1  0
 10 11  2  0
 10 15  1  0
 11 12  1  0
 11 24  1  0
 12 13  2  0
 12 18  1  0
 13 14  1  0
 13 17  1  0
 14 15  2  0
 14 25  1  0
 15 16  1  0
M  END
$$$$

     RDKit          2D

 42 44  0  0  0  0  0  0  0  0999 V2000
    1.8799   -2.9632    0.0000 C   0  0  0  0  0  0  0  0  0  0  0  0
    1.6008   -1.4894    0.0000 C   0  0  0  0  0  0  0  0  0  0  0  0
    2.6291   -0.3973    0.0000 C   0  0  0  0  0  0  0  0  0  0  0  0
    1.9083    0.9181    0.0000 C   0  0  0  0  0  0  0  0  0  0  0  0
    0.4344    0.6390    0.0000 C   0  0  0  0  0  0  0  0  0  0  0  0
    0.2445   -0.8489    0.0000 O   0  0  0  0  0  0  0  0  0  0  0  0
   -0.5442    1.7758    0.0000 C   0  0  0  0  0  0  0  0  0  0  0  0
   -0.0490    3.1917    0.0000 C   0  0  0  0  0  0  0  0  0  0  0  0
    1.4248    3.4708    0.0000 C   0  0  0  0  0  0  0  0  0  0  0  0
    2.4034    2.3340    0.0000 C   0  0  0  0  0  0  0  0  0  0  0  0
   -2.0180    1.4967    0.0000 N   0  0  0  0  0  0  0  0  0  0  0  0
   -2.5132    0.0808    0.0000 C   0  0  0  0  0  0  0  0  0  0  0  0
   -1.5346   -1.0560    0.0000 O   0  0  0  0  0  0  0  0  0  0  0  0
   -3.9870   -0.1983    0.0000 C   0  0  0  0  0  0  0  0  0  0  0  0
   -4.9656    0.9385    0.0000 C   0  0  0  0  0  0  0  0  0  0  0  0
   -6.4394    0.6594    0.0000 C   0  0  0  0  0  0  0  0  0  0  0  0
   -6.9346   -0.7565    0.0000 C   0  0  0  0  0  0  0  0  0  0  0  0
   -5.9560   -1.8933    0.0000 C   0  0  0  0  0  0  0  0  0  0  0  0
   -4.4822   -1.6142    0.0000 C   0  0  0  0  0  0  0  0  0  0  0  0
   -3.5035   -2.7510    0.0000 Cl  0  0  0  0  0  0  0  0  0  0  0  0
   -4.4704    2.3544    0.0000 Cl  0  0  0  0  0  0  0  0  0  0  0  0
    4.1170   -0.5873    0.0000 C   0  0  0  0  0  0  0  0  0  0  0  0
    4.3070    0.9006    0.0000 C   0  0  0  0  0  0  0  0  0  0  0  0
    3.9271   -2.0752    0.0000 C   0  0  0  0  0  0  0  0  0  0  0  0
    5.6050   -0.7773    0.0000 O   0  0  0  0  0  0  0  0  0  0  0  0
    0.4061   -3.2423    0.0000 H   0  0  0  0  0  0  0  0  0  0  0  0
    3.3538   -2.6841    0.0000 H   0  0  0  0  0  0  0  0  0  0  0  0
    2.1590   -4.4370    0.0000 H   0  0  0  0  0  0  0  0  0  0  0  0
   -1.0276    4.3285    0.0000 H   0  0  0  0  0  0  0  0  0  0  0  0
    1.9200    4.8867    0.0000 H   0  0  0  0  0  0  0  0  0  0  0  0
    3.8322    2.7907    0.0000 H   0  0  0  0  0  0  0  0  0  0  0  0
   -2.9966    2.6335    0.0000 H   0  0  0  0  0  0  0  0  0  0  0  0
   -7.4180    1.7962    0.0000 H   0  0  0  0  0  0  0  0  0  0  0  0
   -8.4084   -1.0356    0.0000 H   0  0  0  0  0  0  0  0  0  0  0  0
   -6.4512   -3.3092    0.0000 H   0  0  0  0  0  0  0  0  0  0  0  0
    5.8070    0.8934    0.0000 H   0  0  0  0  0  0  0  0  0  0  0  0
    2.8191    1.0906    0.0000 H   0  0  0  0  0  0  0  0  0  0  0  0
    4.6770    2.3543    0.0000 H   0  0  0  0  0  0  0  0  0  0  0  0
    5.4150   -2.2652    0.0000 H   0  0  0  0  0  0  0  0  0  0  0  0
    2.4391   -1.8853    0.0000 H   0  0  0  0  0  0  0  0  0  0  0  0
    3.7371   -3.5632    0.0000 H   0  0  0  0  0  0  0  0  0  0  0  0
    6.6522    0.2966    0.0000 H   0  0  0  0  0  0  0  0  0  0  0  0
  1  2  1  0
  1 26  1  0
  1 27  1  0
  1 28  1  0
  2  3  2  0
  2  6  1  0
  3  4  1  0
  3 22  1  0
  4  5  2  0
  4 10  1  0
  5  6  1  0
  5  7  1  0
  7  8  2  0
  7 11  1  0
  8  9  1  0
  8 29  1  0
  9 10  2  0
  9 30  1  0
 10 31  1  0
 11 12  1  0
 11 32  1  0
 12 13  2  0
 12 14  1  0
 14 15  2  0
 14 19  1  0
 15 16  1  0
 15 21  1  0
 16 17  2  0
 16 33  1  0
 17 18  1  0
 17 34  1  0
 18 19  2  0
 18 35  1  0
 19 20  1  0
 22 23  1  0
 22 24  1  0
 22 25  1  0
 23 36  1  0
 23 37  1  0
 23 38  1  0
 24 39  1  0
 24 40  1  0
 24 41  1  0
 25 42  1  0
M  END
$$$$

     RDKit          2D

 51 50  0  0  0  0  0  0  0  0999 V2000
    9.4651   -0.1885    0.0000 C   0  0  0  0  0  0  0  0  0  0  0  0
    7.9660   -0.1374    0.0000 C   0  0  0  0  0  0  0  0  0  0  0  0
    6.4668   -0.0862    0.0000 C   0  0  0  0  0  0  0  0  0  0  0  0
    4.9677   -0.0351    0.0000 C   0  0  0  0  0  0  0  0  0  0  0  0
    3.4686    0.0161    0.0000 C   0  0  0  0  0  0  0  0  0  0  0  0
    1.9695    0.0672    0.0000 C   0  0  0  0  0  0  0  0  0  0  0  0
    0.4703    0.1184    0.0000 C   0  0  0  0  0  0  0  0  0  0  0  0
   -1.0288    0.1695    0.0000 C   0  0  0  0  0  0  0  0  0  0  0  0
   -2.5279    0.2207    0.0000 C   0  0  0  0  0  0  0  0  0  0  0  0
   -4.0271    0.2718    0.0000 C   0  0  0  0  0  0  0  0  0  0  0  0
   -5.5262    0.3230    0.0000 N   0  0  0  0  0  0  0  0  0  0  0  0
   -6.3660    1.5658    0.0000 C   0  0  0  0  0  0  0  0  0  0  0  0
   -7.8075    1.1512    0.0000 C   0  0  0  0  0  0  0  0  0  0  0  0
   -7.8587   -0.3479    0.0000 N   0  0  0  0  0  0  0  0  0  0  0  0
   -6.4487   -0.8598    0.0000 C   0  0  0  0  0  0  0  0  0  0  0  0
   -9.1016   -1.1877    0.0000 C   0  0  0  0  0  0  0  0  0  0  0  0
    0.7500    5.4758    0.0000 C   0  0  0  0  0  0  0  0  0  0  0  0
    0.7500    3.9758    0.0000 F   0  0  0  0  0  0  0  0  0  0  0  0
    0.7500    6.9758    0.0000 F   0  0  0  0  0  0  0  0  0  0  0  0
    2.2500    5.4758    0.0000 F   0  0  0  0  0  0  0  0  0  0  0  0
   -0.7500    5.4758    0.0000 S   0  0  0  0  0  0  0  0  0  0  0  0
   -0.7500    6.9758    0.0000 O   0  0  0  0  0  0  0  0  0  0  0  0
   -0.7500    3.9758    0.0000 O   0  0  0  0  0  0  0  0  0  0  0  0
   -2.2500    5.4758    0.0000 O   0  0  0  0  0  0  0  0  0  0  0  0
    9.5162    1.3106    0.0000 H   0  0  0  0  0  0  0  0  0  0  0  0
    9.4139   -1.6876    0.0000 H   0  0  0  0  0  0  0  0  0  0  0  0
   10.9642   -0.2397    0.0000 H   0  0  0  0  0  0  0  0  0  0  0  0
    7.9148   -1.6365    0.0000 H   0  0  0  0  0  0  0  0  0  0  0  0
    8.0171    1.3618    0.0000 H   0  0  0  0  0  0  0  0  0  0  0  0
    6.5180    1.4129    0.0000 H   0  0  0  0  0  0  0  0  0  0  0  0
    6.4157   -1.5853    0.0000 H   0  0  0  0  0  0  0  0  0  0  0  0
    4.9166   -1.5342    0.0000 H   0  0  0  0  0  0  0  0  0  0  0  0
    5.0189    1.4641    0.0000 H   0  0  0  0  0  0  0  0  0  0  0  0
    3.5197    1.5152    0.0000 H   0  0  0  0  0  0  0  0  0  0  0  0
    3.4174   -1.4830    0.0000 H   0  0  0  0  0  0  0  0  0  0  0  0
    1.9183   -1.4319    0.0000 H   0  0  0  0  0  0  0  0  0  0  0  0
    2.0206    1.5664    0.0000 H   0  0  0  0  0  0  0  0  0  0  0  0
    0.5215    1.6175    0.0000 H   0  0  0  0  0  0  0  0  0  0  0  0
    0.4192   -1.3808    0.0000 H   0  0  0  0  0  0  0  0  0  0  0  0
   -1.0800   -1.3296    0.0000 H   0  0  0  0  0  0  0  0  0  0  0  0
   -0.9777    1.6686    0.0000 H   0  0  0  0  0  0  0  0  0  0  0  0
   -2.4768    1.7198    0.0000 H   0  0  0  0  0  0  0  0  0  0  0  0
   -2.5791   -1.2785    0.0000 H   0  0  0  0  0  0  0  0  0  0  0  0
   -4.0782   -1.2273    0.0000 H   0  0  0  0  0  0  0  0  0  0  0  0
   -3.9759    1.7709    0.0000 H   0  0  0  0  0  0  0  0  0  0  0  0
   -5.8541    2.9758    0.0000 H   0  0  0  0  0  0  0  0  0  0  0  0
   -8.9903    2.0738    0.0000 H   0  0  0  0  0  0  0  0  0  0  0  0
   -6.0341   -2.3014    0.0000 H   0  0  0  0  0  0  0  0  0  0  0  0
   -9.9413    0.0552    0.0000 H   0  0  0  0  0  0  0  0  0  0  0  0
   -8.2618   -2.4306    0.0000 H   0  0  0  0  0  0  0  0  0  0  0  0
  -10.3444   -2.0275    0.0000 H   0  0  0  0  0  0  0  0  0  0  0  0
  1  2  1  0
  1 25  1  0
  1 26  1  0
  1 27  1  0
  2  3  1  0
  2 28  1  0
  2 29  1  0
  3  4  1  0
  3 30  1  0
  3 31  1  0
  4  5  1  0
  4 32  1  0
  4 33  1  0
  5  6  1  0
  5 34  1  0
  5 35  1  0
  6  7  1  0
  6 36  1  0
  6 37  1  0
  7  8  1  0
  7 38  1  0
  7 39  1  0
  8  9  1  0
  8 40  1  0
  8 41  1  0
  9 10  1  0
  9 42  1  0
  9 43  1  0
 10 11  1  0
 10 44  1  0
 10 45  1  0
 11 12  1  0
 11 15  1  0
 12 13  2  0
 12 46  1  0
 13 14  1  0
 13 47  1  0
 14 15  2  0
 14 16  1  0
 15 48  1  0
 16 49  1  0
 16 50  1  0
 16 51  1  0
 17 18  1  0
 17 19  1  0
 17 20  1  0
 17 21  1  0
 21 22  2  0
 21 23  2  0
 21 24  1  0
M  CHG  2  14   1  24  -1
M  END
$$$$

     RDKit          2D

 34 36  0  0  0  0  0  0  0  0999 V2000
   -1.9401   -2.5382    0.0000 C   0  0  0  0  0  0  0  0  0  0  0  0
   -0.7528   -3.4549    0.0000 C   0  0  0  0  0  0  0  0  0  0  0  0
    0.6348   -2.8850    0.0000 C   0  0  0  0  0  0  0  0  0  0  0  0
    0.8350   -1.3984    0.0000 C   0  0  0  0  0  0  0  0  0  0  0  0
   -0.3523   -0.4817    0.0000 C   0  0  0  0  0  0  0  0  0  0  0  0
   -1.7399   -1.0516    0.0000 C   0  0  0  0  0  0  0  0  0  0  0  0
   -0.1521    1.0048    0.0000 C   0  0  0  0  0  0  0  0  0  0  0  0
    1.3344    0.8046    0.0000 C   0  0  0  0  0  0  0  0  0  0  0  0
    1.9043   -0.5829    0.0000 C   0  0  0  0  0  0  0  0  0  0  0  0
    3.3909   -0.7831    0.0000 C   0  0  0  0  0  0  0  0  0  0  0  0
    4.3076    0.4042    0.0000 C   0  0  0  0  0  0  0  0  0  0  0  0
    3.7377    1.7917    0.0000 C   0  0  0  0  0  0  0  0  0  0  0  0
    2.2511    1.9919    0.0000 C   0  0  0  0  0  0  0  0  0  0  0  0
    5.7942    0.2040    0.0000 Cl  0  0  0  0  0  0  0  0  0  0  0  0
   -1.6387    1.2050    0.0000 C   0  0  0  0  0  0  0  0  0  0  0  0
   -2.2086    2.5926    0.0000 C   0  0  0  0  0  0  0  0  0  0  0  0
   -3.6952    2.7928    0.0000 N   0  0  0  0  0  0  0  0  0  0  0  0
   -4.6119    1.6055    0.0000 C   0  0  0  0  0  0  0  0  0  0  0  0
   -4.0420    0.2179    0.0000 N   0  0  0  0  0  0  0  0  0  0  0  0
   -2.5554    0.0177    0.0000 C   0  0  0  0  0  0  0  0  0  0  0  0
    0.0481    2.4914    0.0000 O   0  0  0  0  0  0  0  0  0  0  0  0
    1.6237   -1.2830    0.0000 Cl  0  0  0  0  0  0  0  0  0  0  0  0
   -3.3276   -3.1081    0.0000 H   0  0  0  0  0  0  0  0  0  0  0  0
   -0.9530   -4.9415    0.0000 H   0  0  0  0  0  0  0  0  0  0  0  0
    1.8221   -3.8017    0.0000 H   0  0  0  0  0  0  0  0  0  0  0  0
   -3.1137   -0.4495    0.0000 H   0  0  0  0  0  0  0  0  0  0  0  0
    1.3022   -1.9567    0.0000 H   0  0  0  0  0  0  0  0  0  0  0  0
    3.9608   -2.1706    0.0000 H   0  0  0  0  0  0  0  0  0  0  0  0
    4.6544    2.9790    0.0000 H   0  0  0  0  0  0  0  0  0  0  0  0
    1.8546    3.4386    0.0000 H   0  0  0  0  0  0  0  0  0  0  0  0
   -1.2919    3.7799    0.0000 H   0  0  0  0  0  0  0  0  0  0  0  0
   -6.0984    1.8057    0.0000 H   0  0  0  0  0  0  0  0  0  0  0  0
   -2.3382   -1.4665    0.0000 H   0  0  0  0  0  0  0  0  0  0  0  0
    1.3558    3.2262    0.0000 H   0  0  0  0  0  0  0  0  0  0  0  0
  1  2  2  0
  1  6  1  0
  1 23  1  0
  2  3  1  0
  2 24  1  0
  3  4  2  0
  3 25  1  0
  4  5  1  0
  4 22  1  0
  5  6  2  0
  5  7  1  0
  6 26  1  0
  7  8  1  0
  7 15  1  0
  7 21  1  1
  8  9  2  0
  8 13  1  0
  9 10  1  0
  9 27  1  0
 10 11  2  0
 10 28  1  0
 11 12  1  0
 11 14  1  0
 12 13  2  0
 12 29  1  0
 13 30  1  0
 15 16  2  0
 15 20  1  0
 16 17  1  0
 16 31  1  0
 17 18  2  0
 18 19  1  0
 18 32  1  0
 19 20  2  0
 20 33  1  0
 21 34  1  0
M  END
$$$$

     RDKit          2D

 38 37  0  0  0  0  0  0  0  0999 V2000
    7.9593   -0.2093    0.0000 C   0  0  0  0  0  0  0  0  0  0  0  0
    6.4609   -0.1405    0.0000 C   0  0  0  0  0  0  0  0  0  0  0  0
    4.9624   -0.0717    0.0000 C   0  0  0  0  0  0  0  0  0  0  0  0
    3.4640   -0.0028    0.0000 C   0  0  0  0  0  0  0  0  0  0  0  0
    1.9656    0.0660    0.0000 C   0  0  0  0  0  0  0  0  0  0  0  0
    0.4672    0.1348    0.0000 C   0  0  0  0  0  0  0  0  0  0  0  0
   -1.0312    0.2037    0.0000 C   0  0  0  0  0  0  0  0  0  0  0  0
   -2.5297    0.2725    0.0000 C   0  0  0  0  0  0  0  0  0  0  0  0
   -4.0281    0.3413    0.0000 N   0  0  0  0  0  0  0  0  0  0  0  0
   -4.8531    1.5940    0.0000 C   0  0  0  0  0  0  0  0  0  0  0  0
   -6.2995    1.1965    0.0000 C   0  0  0  0  0  0  0  0  0  0  0  0
   -6.3683   -0.3020    0.0000 N   0  0  0  0  0  0  0  0  0  0  0  0
   -4.9645   -0.8305    0.0000 C   0  0  0  0  0  0  0  0  0  0  0  0
   -7.6210   -1.1270    0.0000 C   0  0  0  0  0  0  0  0  0  0  0  0
    0.0000    3.9978    0.0000 Cl  0  0  0  0  0  0  0  0  0  0  0  0
    8.0281    1.2891    0.0000 H   0  0  0  0  0  0  0  0  0  0  0  0
    7.8905   -1.7077    0.0000 H   0  0  0  0  0  0  0  0  0  0  0  0
    9.4577   -0.2782    0.0000 H   0  0  0  0  0  0  0  0  0  0  0  0
    6.3920   -1.6389    0.0000 H   0  0  0  0  0  0  0  0  0  0  0  0
    6.5297    1.3579    0.0000 H   0  0  0  0  0  0  0  0  0  0  0  0
    5.0313    1.4268    0.0000 H   0  0  0  0  0  0  0  0  0  0  0  0
    4.8936   -1.5701    0.0000 H   0  0  0  0  0  0  0  0  0  0  0  0
    3.3952   -1.5013    0.0000 H   0  0  0  0  0  0  0  0  0  0  0  0
    3.5329    1.4956    0.0000 H   0  0  0  0  0  0  0  0  0  0  0  0
    2.0344    1.5644    0.0000 H   0  0  0  0  0  0  0  0  0  0  0  0
    1.8968   -1.4324    0.0000 H   0  0  0  0  0  0  0  0  0  0  0  0
    0.3984   -1.3636    0.0000 H   0  0  0  0  0  0  0  0  0  0  0  0
    0.5360    1.6333    0.0000 H   0  0  0  0  0  0  0  0  0  0  0  0
   -0.9624    1.7021    0.0000 H   0  0  0  0  0  0  0  0  0  0  0  0
   -1.1001   -1.2948    0.0000 H   0  0  0  0  0  0  0  0  0  0  0  0
   -2.5985   -1.2259    0.0000 H   0  0  0  0  0  0  0  0  0  0  0  0
   -2.4608    1.7709    0.0000 H   0  0  0  0  0  0  0  0  0  0  0  0
   -4.3246    2.9978    0.0000 H   0  0  0  0  0  0  0  0  0  0  0  0
   -7.4713    2.1329    0.0000 H   0  0  0  0  0  0  0  0  0  0  0  0
   -4.5669   -2.2768    0.0000 H   0  0  0  0  0  0  0  0  0  0  0  0
   -8.4461    0.1257    0.0000 H   0  0  0  0  0  0  0  0  0  0  0  0
   -6.7960   -2.3797    0.0000 H   0  0  0  0  0  0  0  0  0  0  0  0
   -8.8737   -1.9521    0.0000 H   0  0  0  0  0  0  0  0  0  0  0  0
  1  2  1  0
  1 16  1  0
  1 17  1  0
  1 18  1  0
  2  3  1  0
  2 19  1  0
  2 20  1  0
  3  4  1  0
  3 21  1  0
  3 22  1  0
  4  5  1  0
  4 23  1  0
  4 24  1  0
  5  6  1  0
  5 25  1  0
  5 26  1  0
  6  7  1  0
  6 27  1  0
  6 28  1  0
  7  8  1  0
  7 29  1  0
  7 30  1  0
  8  9  1  0
  8 31  1  0
  8 32  1  0
  9 10  1  0
  9 13  1  0
 10 11  2  0
 10 33  1  0
 11 12  1  0
 11 34  1  0
 12 13  2  0
 12 14  1  0
 13 35  1  0
 14 36  1  0
 14 37  1  0
 14 38  1  0
M  CHG  2  12   1  15  -1
M  END
$$$$

     RDKit          2D

 68 70  0  0  1  0  0  0  0  0999 V2000
   -5.2799    2.2083    0.0000 C   0  0  0  0  0  0  0  0  0  0  0  0
   -3.7819    2.1318    0.0000 C   0  0  0  0  0  0  0  0  0  0  0  0
   -2.2838    2.0554    0.0000 C   0  0  0  0  0  0  0  0  0  0  0  0
   -2.2074    3.5534    0.0000 C   0  0  0  0  0  0  0  0  0  0  0  0
   -2.3603    0.5573    0.0000 C   0  0  0  0  0  0  0  0  0  0  0  0
   -0.7858    1.9789    0.0000 C   0  0  0  0  0  0  0  0  0  0  0  0
   -0.0521    3.1121    0.0000 O   0  0  0  0  0  0  0  0  0  0  0  0
   -0.1030    0.6434    0.0000 O   0  0  0  0  0  0  0  0  0  0  0  0
    1.3951    0.5669    0.0000 C   0  0  0  0  0  0  0  0  0  0  0  0
    1.2102    2.0555    0.0000 C   0  0  0  0  0  0  0  0  0  0  0  0
    2.4070    2.9599    0.0000 C   0  0  0  0  0  0  0  0  0  0  0  0
    3.7885    2.3757    0.0000 C   0  0  0  0  0  0  0  0  0  0  0  0
    3.9734    0.8871    0.0000 C   0  0  0  0  0  0  0  0  0  0  0  0
    2.7767   -0.0173    0.0000 C   0  0  0  0  0  0  0  0  0  0  0  0
    2.9615   -1.5058    0.0000 C   0  0  0  0  0  0  0  0  0  0  0  0
    4.3431   -2.0900    0.0000 C   0  0  0  0  0  0  0  0  0  0  0  0
    5.5398   -1.1857    0.0000 C   0  0  0  0  0  0  0  0  0  0  0  0
    5.3549    0.3029    0.0000 C   0  0  0  0  0  0  0  0  0  0  0  0
    3.5278   -3.3492    0.0000 C   0  0  0  0  0  0  0  0  0  0  0  0
    1.4635   -1.4294    0.0000 C   0  0  0  0  0  0  0  0  0  0  0  0
   -0.0346   -1.3530    0.0000 C   0  0  0  0  0  0  0  0  0  0  0  0
   -1.5326   -1.2765    0.0000 C   0  0  0  0  0  0  0  0  0  0  0  0
   -1.3478   -2.7651    0.0000 C   0  0  0  0  0  0  0  0  0  0  0  0
   -2.5445   -3.6695    0.0000 C   0  0  0  0  0  0  0  0  0  0  0  0
   -3.9261   -3.0853    0.0000 C   0  0  0  0  0  0  0  0  0  0  0  0
   -4.1109   -1.5967    0.0000 C   0  0  0  0  0  0  0  0  0  0  0  0
   -5.4925   -1.0125    0.0000 O   0  0  0  0  0  0  0  0  0  0  0  0
   -2.9142   -0.6923    0.0000 O   0  0  0  0  0  0  0  0  0  0  0  0
   -1.4461   -4.6909    0.0000 O   0  0  0  0  0  0  0  0  0  0  0  0
    3.2222    4.2190    0.0000 C   0  0  0  0  0  0  0  0  0  0  0  0
   -5.3564    0.7102    0.0000 H   0  0  0  0  0  0  0  0  0  0  0  0
   -5.2035    3.7063    0.0000 H   0  0  0  0  0  0  0  0  0  0  0  0
   -6.7780    2.2847    0.0000 H   0  0  0  0  0  0  0  0  0  0  0  0
   -3.8449    3.0153    0.0000 H   0  0  0  0  0  0  0  0  0  0  0  0
   -3.9345    1.2593    0.0000 H   0  0  0  0  0  0  0  0  0  0  0  0
   -3.0799    3.7061    0.0000 H   0  0  0  0  0  0  0  0  0  0  0  0
   -0.8608    3.6495    0.0000 H   0  0  0  0  0  0  0  0  0  0  0  0
   -2.1309    5.0515    0.0000 H   0  0  0  0  0  0  0  0  0  0  0  0
   -3.2438    0.4943    0.0000 H   0  0  0  0  0  0  0  0  0  0  0  0
   -1.0305    0.3247    0.0000 H   0  0  0  0  0  0  0  0  0  0  0  0
   -2.6786   -0.4888    0.0000 H   0  0  0  0  0  0  0  0  0  0  0  0
    0.5579   -0.6777    0.0000 H   0  0  0  0  0  0  0  0  0  0  0  0
   -0.2876    1.9750    0.0000 H   0  0  0  0  0  0  0  0  0  0  0  0
    0.6953    3.4643    0.0000 H   0  0  0  0  0  0  0  0  0  0  0  0
    1.3085    3.9813    0.0000 H   0  0  0  0  0  0  0  0  0  0  0  0
    5.0865    3.1274    0.0000 H   0  0  0  0  0  0  0  0  0  0  0  0
    1.4786   -0.7690    0.0000 H   0  0  0  0  0  0  0  0  0  0  0  0
    2.4504   -2.9161    0.0000 H   0  0  0  0  0  0  0  0  0  0  0  0
    5.4415   -3.1115    0.0000 H   0  0  0  0  0  0  0  0  0  0  0  0
    6.9213   -1.7699    0.0000 H   0  0  0  0  0  0  0  0  0  0  0  0
    6.5516    1.2073    0.0000 H   0  0  0  0  0  0  0  0  0  0  0  0
    2.1787   -2.6935    0.0000 H   0  0  0  0  0  0  0  0  0  0  0  0
    4.7870   -4.1644    0.0000 H   0  0  0  0  0  0  0  0  0  0  0  0
    2.7126   -4.6083    0.0000 H   0  0  0  0  0  0  0  0  0  0  0  0
    1.3870   -2.9275    0.0000 H   0  0  0  0  0  0  0  0  0  0  0  0
    1.1751    0.0426    0.0000 H   0  0  0  0  0  0  0  0  0  0  0  0
   -0.3229    0.1191    0.0000 H   0  0  0  0  0  0  0  0  0  0  0  0
    0.0721   -2.8492    0.0000 H   0  0  0  0  0  0  0  0  0  0  0  0
   -1.0215    0.1337    0.0000 H   0  0  0  0  0  0  0  0  0  0  0  0
   -0.6650   -4.1007    0.0000 H   0  0  0  0  0  0  0  0  0  0  0  0
    0.1291   -2.5026    0.0000 H   0  0  0  0  0  0  0  0  0  0  0  0
   -3.3597   -4.9286    0.0000 H   0  0  0  0  0  0  0  0  0  0  0  0
   -5.4241   -3.0088    0.0000 H   0  0  0  0  0  0  0  0  0  0  0  0
   -4.2615   -4.5473    0.0000 H   0  0  0  0  0  0  0  0  0  0  0  0
   -1.7815   -6.1530    0.0000 H   0  0  0  0  0  0  0  0  0  0  0  0
    4.5713    3.5633    0.0000 H   0  0  0  0  0  0  0  0  0  0  0  0
    1.9631    5.0342    0.0000 H   0  0  0  0  0  0  0  0  0  0  0  0
    4.0374    5.4781    0.0000 H   0  0  0  0  0  0  0  0  0  0  0  0
  1  2  1  0
  1 31  1  0
  1 32  1  0
  1 33  1  0
  2  3  1  0
  2 34  1  0
  2 35  1  0
  3  4  1  0
  3  5  1  0
  3  6  1  0
  4 36  1  0
  4 37  1  0
  4 38  1  0
  5 39  1  0
  5 40  1  0
  5 41  1  0
  6  7  2  0
  6  8  1  0
  9 10  1  0
  9 14  1  0
  9 42  1  6
  9  8  1  0
 10 11  1  0
 10 43  1  0
 10 44  1  0
 11 12  1  0
 11 30  1  0
 11 45  1  6
 12 13  2  0
 12 46  1  0
 13 14  1  0
 13 18  1  0
 14 15  1  0
 14 47  1  6
 15 16  1  0
 15 48  1  1
 15 20  1  0
 16 17  1  0
 16 19  1  0
 16 49  1  1
 17 18  2  0
 17 50  1  0
 18 51  1  0
 19 52  1  0
 19 53  1  0
 19 54  1  0
 20 21  1  0
 20 55  1  0
 20 56  1  0
 21 22  1  0
 21 57  1  0
 21 58  1  0
 22 23  1  0
 22 28  1  0
 22 59  1  1
 23 24  1  0
 23 60  1  0
 23 61  1  0
 24 25  1  0
 24 29  1  0
 24 62  1  6
 25 26  1  0
 25 63  1  0
 25 64  1  0
 26 27  2  0
 26 28  1  0
 29 65  1  0
 30 66  1  0
 30 67  1  0
 30 68  1  0
M  END
$$$$

     RDKit          2D

 44 43  0  0  0  0  0  0  0  0999 V2000
    7.9593   -0.2093    0.0000 C   0  0  0  0  0  0  0  0  0  0  0  0
    6.4609   -0.1405    0.0000 C   0  0  0  0  0  0  0  0  0  0  0  0
    4.9624   -0.0717    0.0000 C   0  0  0  0  0  0  0  0  0  0  0  0
    3.4640   -0.0028    0.0000 C   0  0  0  0  0  0  0  0  0  0  0  0
    1.9656    0.0660    0.0000 C   0  0  0  0  0  0  0  0  0  0  0  0
    0.4672    0.1348    0.0000 C   0  0  0  0  0  0  0  0  0  0  0  0
   -1.0312    0.2037    0.0000 C   0  0  0  0  0  0  0  0  0  0  0  0
   -2.5297    0.2725    0.0000 C   0  0  0  0  0  0  0  0  0  0  0  0
   -4.0281    0.3413    0.0000 N   0  0  0  0  0  0  0  0  0  0  0  0
   -4.8531    1.5940    0.0000 C   0  0  0  0  0  0  0  0  0  0  0  0
   -6.2995    1.1965    0.0000 C   0  0  0  0  0  0  0  0  0  0  0  0
   -6.3683   -0.3020    0.0000 N   0  0  0  0  0  0  0  0  0  0  0  0
   -4.9645   -0.8305    0.0000 C   0  0  0  0  0  0  0  0  0  0  0  0
   -7.6210   -1.1270    0.0000 C   0  0  0  0  0  0  0  0  0  0  0  0
   -1.2990    4.7478    0.0000 F   0  0  0  0  0  0  0  0  0  0  0  0
    0.0000    5.4978    0.0000 P   0  0  0  0  0  0  0  0  0  0  0  0
   -0.0000    3.9978    0.0000 F   0  0  0  0  0  0  0  0  0  0  0  0
    1.2990    4.7478    0.0000 F   0  0  0  0  0  0  0  0  0  0  0  0
    0.0000    6.9978    0.0000 F   0  0  0  0  0  0  0  0  0  0  0  0
    1.2990    6.2478    0.0000 F   0  0  0  0  0  0  0  0  0  0  0  0
   -1.2990    6.2478    0.0000 F   0  0  0  0  0  0  0  0  0  0  0  0
    8.0281    1.2891    0.0000 H   0  0  0  0  0  0  0  0  0  0  0  0
    7.8905   -1.7077    0.0000 H   0  0  0  0  0  0  0  0  0  0  0  0
    9.4577   -0.2782    0.0000 H   0  0  0  0  0  0  0  0  0  0  0  0
    6.3920   -1.6389    0.0000 H   0  0  0  0  0  0  0  0  0  0  0  0
    6.5297    1.3579    0.0000 H   0  0  0  0  0  0  0  0  0  0  0  0
    5.0313    1.4268    0.0000 H   0  0  0  0  0  0  0  0  0  0  0  0
    4.8936   -1.5701    0.0000 H   0  0  0  0  0  0  0  0  0  0  0  0
    3.3952   -1.5013    0.0000 H   0  0  0  0  0  0  0  0  0  0  0  0
    3.5329    1.4956    0.0000 H   0  0  0  0  0  0  0  0  0  0  0  0
    2.0344    1.5644    0.0000 H   0  0  0  0  0  0  0  0  0  0  0  0
    1.8968   -1.4324    0.0000 H   0  0  0  0  0  0  0  0  0  0  0  0
    0.3984   -1.3636    0.0000 H   0  0  0  0  0  0  0  0  0  0  0  0
    0.5360    1.6333    0.0000 H   0  0  0  0  0  0  0  0  0  0  0  0
   -0.9624    1.7021    0.0000 H   0  0  0  0  0  0  0  0  0  0  0  0
   -1.1001   -1.2948    0.0000 H   0  0  0  0  0  0  0  0  0  0  0  0
   -2.5985   -1.2259    0.0000 H   0  0  0  0  0  0  0  0  0  0  0  0
   -2.4608    1.7709    0.0000 H   0  0  0  0  0  0  0  0  0  0  0  0
   -4.3246    2.9978    0.0000 H   0  0  0  0  0  0  0  0  0  0  0  0
   -7.4713    2.1329    0.0000 H   0  0  0  0  0  0  0  0  0  0  0  0
   -4.5669   -2.2768    0.0000 H   0  0  0  0  0  0  0  0  0  0  0  0
   -8.4461    0.1257    0.0000 H   0  0  0  0  0  0  0  0  0  0  0  0
   -6.7960   -2.3797    0.0000 H   0  0  0  0  0  0  0  0  0  0  0  0
   -8.8737   -1.9521    0.0000 H   0  0  0  0  0  0  0  0  0  0  0  0
  1  2  1  0
  1 22  1  0
  1 23  1  0
  1 24  1  0
  2  3  1  0
  2 25  1  0
  2 26  1  0
  3  4  1  0
  3 27  1  0
  3 28  1  0
  4  5  1  0
  4 29  1  0
  4 30  1  0
  5  6  1  0
  5 31  1  0
  5 32  1  0
  6  7  1  0
  6 33  1  0
  6 34  1  0
  7  8  1  0
  7 35  1  0
  7 36  1  0
  8  9  1  0
  8 37  1  0
  8 38  1  0
  9 10  1  0
  9 13  1  0
 10 11  2  0
 10 39  1  0
 11 12  1  0
 11 40  1  0
 12 13  2  0
 12 14  1  0
 13 41  1  0
 14 42  1  0
 14 43  1  0
 14 44  1  0
 15 16  1  0
 16 17  1  0
 16 18  1  0
 16 19  1  0
 16 20  1  0
 16 21  1  0
M  CHG  2  12   1  16  -1
M  END
$$$$

     RDKit          2D

 56 58  0  0  1  0  0  0  0  0999 V2000
    0.6147   -3.3726    0.0000 C   0  0  0  0  0  0  0  0  0  0  0  0
   -0.1693   -2.0938    0.0000 C   0  0  0  0  0  0  0  0  0  0  0  0
   -1.4481   -2.8778    0.0000 C   0  0  0  0  0  0  0  0  0  0  0  0
    1.1095   -1.3098    0.0000 N   0  0  0  0  0  0  0  0  0  0  0  0
    2.4954   -1.8835    0.0000 C   0  0  0  0  0  0  0  0  0  0  0  0
    2.9964   -3.2974    0.0000 C   0  0  0  0  0  0  0  0  0  0  0  0
    4.4713   -3.5705    0.0000 C   0  0  0  0  0  0  0  0  0  0  0  0
    5.4453   -2.4297    0.0000 C   0  0  0  0  0  0  0  0  0  0  0  0
    4.9443   -1.0158    0.0000 C   0  0  0  0  0  0  0  0  0  0  0  0
    3.4693   -0.7428    0.0000 C   0  0  0  0  0  0  0  0  0  0  0  0
    2.6853    0.5361    0.0000 C   0  0  0  0  0  0  0  0  0  0  0  0
    1.2269    0.1856    0.0000 C   0  0  0  0  0  0  0  0  0  0  0  0
    0.0861    1.1596    0.0000 C   0  0  0  0  0  0  0  0  0  0  0  0
   -1.3278    0.6586    0.0000 C   0  0  0  0  0  0  0  0  0  0  0  0
   -2.4686    1.6325    0.0000 C   0  0  0  0  0  0  0  0  0  0  0  0
   -3.4425    0.4917    0.0000 C   0  0  0  0  0  0  0  0  0  0  0  0
   -4.4165   -0.6491    0.0000 C   0  0  0  0  0  0  0  0  0  0  0  0
   -5.5573    0.3249    0.0000 C   0  0  0  0  0  0  0  0  0  0  0  0
   -6.6981    1.2988    0.0000 C   0  0  0  0  0  0  0  0  0  0  0  0
   -6.4250    2.7738    0.0000 O   0  0  0  0  0  0  0  0  0  0  0  0
   -8.1120    0.7978    0.0000 O   0  0  0  0  0  0  0  0  0  0  0  0
   -3.2757   -1.6230    0.0000 O   0  0  0  0  0  0  0  0  0  0  0  0
   -3.6094    2.6065    0.0000 O   0  0  0  0  0  0  0  0  0  0  0  0
    3.2591    1.9220    0.0000 C   0  0  0  0  0  0  0  0  0  0  0  0
    4.7462    2.1181    0.0000 C   0  0  0  0  0  0  0  0  0  0  0  0
    5.3200    3.5040    0.0000 C   0  0  0  0  0  0  0  0  0  0  0  0
    4.4066    4.6939    0.0000 C   0  0  0  0  0  0  0  0  0  0  0  0
    2.9195    4.4978    0.0000 C   0  0  0  0  0  0  0  0  0  0  0  0
    2.3457    3.1118    0.0000 C   0  0  0  0  0  0  0  0  0  0  0  0
    4.9804    6.0798    0.0000 F   0  0  0  0  0  0  0  0  0  0  0  0
   -0.0784   -3.9241    0.0000 H   0  0  0  0  0  0  0  0  0  0  0  0
    1.8935   -2.5886    0.0000 H   0  0  0  0  0  0  0  0  0  0  0  0
    1.2369   -4.7374    0.0000 H   0  0  0  0  0  0  0  0  0  0  0  0
   -0.8503   -1.2382    0.0000 H   0  0  0  0  0  0  0  0  0  0  0  0
   -1.0807   -3.6837    0.0000 H   0  0  0  0  0  0  0  0  0  0  0  0
   -2.2321   -1.5990    0.0000 H   0  0  0  0  0  0  0  0  0  0  0  0
   -2.7270   -3.6618    0.0000 H   0  0  0  0  0  0  0  0  0  0  0  0
    2.1688   -4.5484    0.0000 H   0  0  0  0  0  0  0  0  0  0  0  0
    4.9723   -4.9843    0.0000 H   0  0  0  0  0  0  0  0  0  0  0  0
    6.9202   -2.7027    0.0000 H   0  0  0  0  0  0  0  0  0  0  0  0
    6.0500   -0.0022    0.0000 H   0  0  0  0  0  0  0  0  0  0  0  0
    0.1682    2.5071    0.0000 H   0  0  0  0  0  0  0  0  0  0  0  0
   -1.5269   -0.4167    0.0000 H   0  0  0  0  0  0  0  0  0  0  0  0
   -1.4947    2.7733    0.0000 H   0  0  0  0  0  0  0  0  0  0  0  0
   -4.0411    1.1447    0.0000 H   0  0  0  0  0  0  0  0  0  0  0  0
   -2.4290   -0.6140    0.0000 H   0  0  0  0  0  0  0  0  0  0  0  0
   -5.3904   -1.7899    0.0000 H   0  0  0  0  0  0  0  0  0  0  0  0
   -5.0686    1.0636    0.0000 H   0  0  0  0  0  0  0  0  0  0  0  0
   -6.5312   -0.8159    0.0000 H   0  0  0  0  0  0  0  0  0  0  0  0
   -9.2528    1.7718    0.0000 H   0  0  0  0  0  0  0  0  0  0  0  0
   -3.5488   -3.0980    0.0000 H   0  0  0  0  0  0  0  0  0  0  0  0
   -3.3363    4.0814    0.0000 H   0  0  0  0  0  0  0  0  0  0  0  0
    5.7978    1.0484    0.0000 H   0  0  0  0  0  0  0  0  0  0  0  0
    6.8071    3.7001    0.0000 H   0  0  0  0  0  0  0  0  0  0  0  0
    2.0061    5.6876    0.0000 H   0  0  0  0  0  0  0  0  0  0  0  0
    0.9958    3.0998    0.0000 H   0  0  0  0  0  0  0  0  0  0  0  0
  1  2  1  0
  1 31  1  0
  1 32  1  0
  1 33  1  0
  2  3  1  0
  2  4  1  0
  2 34  1  0
  3 35  1  0
  3 36  1  0
  3 37  1  0
  4  5  1  0
  4 12  1  0
  5  6  2  0
  5 10  1  0
  6  7  1  0
  6 38  1  0
  7  8  2  0
  7 39  1  0
  8  9  1  0
  8 40  1  0
  9 10  2  0
  9 41  1  0
 10 11  1  0
 11 12  2  0
 11 24  1  0
 12 13  1  0
 13 14  2  0
 13 42  1  0
 14 43  1  0
 15 23  1  0
 15 44  1  1
 15 16  1  0
 15 14  1  0
 16 45  1  0
 16 46  1  0
 17 22  1  0
 17 47  1  6
 17 18  1  0
 17 16  1  0
 18 19  1  0
 18 48  1  0
 18 49  1  0
 19 20  2  0
 19 21  1  0
 21 50  1  0
 22 51  1  0
 23 52  1  0
 24 25  2  0
 24 29  1  0
 25 26  1  0
 25 53  1  0
 26 27  2  0
 26 54  1  0
 27 28  1  0
 27 30  1  0
 28 29  2  0
 28 55  1  0
 29 56  1  0
M  END
$$$$

     RDKit          2D

 49 51  0  0  0  0  0  0  0  0999 V2000
   -4.7780    1.9863    0.0000 C   0  0  0  0  0  0  0  0  0  0  0  0
   -4.8013    0.4865    0.0000 C   0  0  0  0  0  0  0  0  0  0  0  0
   -3.3283    0.2031    0.0000 C   0  0  0  0  0  0  0  0  0  0  0  0
   -4.3103   -0.9309    0.0000 C   0  0  0  0  0  0  0  0  0  0  0  0
   -5.6208   -1.6606    0.0000 C   0  0  0  0  0  0  0  0  0  0  0  0
   -3.3640   -2.0948    0.0000 C   0  0  0  0  0  0  0  0  0  0  0  0
   -2.0411   -0.5670    0.0000 C   0  0  0  0  0  0  0  0  0  0  0  0
   -2.0535   -1.3641    0.0000 O   0  0  0  0  0  0  0  0  0  0  0  0
   -0.7306    0.1627    0.0000 O   0  0  0  0  0  0  0  0  0  0  0  0
    0.5567   -0.6073    0.0000 C   0  0  0  0  0  0  0  0  0  0  0  0
    1.8439   -1.3774    0.0000 C   0  0  0  0  0  0  0  0  0  0  0  0
    3.1311   -2.1475    0.0000 N   0  0  0  0  0  0  0  0  0  0  0  0
    1.3267    0.6799    0.0000 C   0  0  0  0  0  0  0  0  0  0  0  0
    2.8266    0.6566    0.0000 C   0  0  0  0  0  0  0  0  0  0  0  0
    3.5966    1.9438    0.0000 C   0  0  0  0  0  0  0  0  0  0  0  0
    2.8669    3.2544    0.0000 C   0  0  0  0  0  0  0  0  0  0  0  0
    1.3671    3.2777    0.0000 C   0  0  0  0  0  0  0  0  0  0  0  0
    0.5970    1.9904    0.0000 C   0  0  0  0  0  0  0  0  0  0  0  0
    5.0965    1.9205    0.0000 O   0  0  0  0  0  0  0  0  0  0  0  0
    5.8262    0.6100    0.0000 C   0  0  0  0  0  0  0  0  0  0  0  0
    5.0561   -0.6772    0.0000 C   0  0  0  0  0  0  0  0  0  0  0  0
    5.7858   -1.9877    0.0000 C   0  0  0  0  0  0  0  0  0  0  0  0
    7.2857   -2.0110    0.0000 C   0  0  0  0  0  0  0  0  0  0  0  0
    8.0557   -0.7238    0.0000 C   0  0  0  0  0  0  0  0  0  0  0  0
    7.3260    0.5867    0.0000 C   0  0  0  0  0  0  0  0  0  0  0  0
   -6.2824    0.2490    0.0000 C   0  0  0  0  0  0  0  0  0  0  0  0
   -3.4357    2.1300    0.0000 H   0  0  0  0  0  0  0  0  0  0  0  0
   -6.2638    2.1922    0.0000 H   0  0  0  0  0  0  0  0  0  0  0  0
   -4.7548    3.4861    0.0000 H   0  0  0  0  0  0  0  0  0  0  0  0
   -2.6968    1.3963    0.0000 H   0  0  0  0  0  0  0  0  0  0  0  0
   -5.1635   -2.7863    0.0000 H   0  0  0  0  0  0  0  0  0  0  0  0
   -6.6459   -0.5656    0.0000 H   0  0  0  0  0  0  0  0  0  0  0  0
   -6.9313   -2.3904    0.0000 H   0  0  0  0  0  0  0  0  0  0  0  0
   -4.2063   -2.9704    0.0000 H   0  0  0  0  0  0  0  0  0  0  0  0
   -2.6422   -1.7565    0.0000 H   0  0  0  0  0  0  0  0  0  0  0  0
   -2.4178   -3.2587    0.0000 H   0  0  0  0  0  0  0  0  0  0  0  0
   -0.2134   -1.8946    0.0000 H   0  0  0  0  0  0  0  0  0  0  0  0
    3.3911   -0.7331    0.0000 H   0  0  0  0  0  0  0  0  0  0  0  0
    3.6370    4.5416    0.0000 H   0  0  0  0  0  0  0  0  0  0  0  0
    0.6373    4.5882    0.0000 H   0  0  0  0  0  0  0  0  0  0  0  0
   -0.9028    2.0137    0.0000 H   0  0  0  0  0  0  0  0  0  0  0  0
    3.5646   -0.8369    0.0000 H   0  0  0  0  0  0  0  0  0  0  0  0
    5.0158   -3.2750    0.0000 H   0  0  0  0  0  0  0  0  0  0  0  0
    8.0154   -3.3216    0.0000 H   0  0  0  0  0  0  0  0  0  0  0  0
    9.5556   -0.7471    0.0000 H   0  0  0  0  0  0  0  0  0  0  0  0
    8.0961    1.8740    0.0000 H   0  0  0  0  0  0  0  0  0  0  0  0
   -6.6987    1.6900    0.0000 H   0  0  0  0  0  0  0  0  0  0  0  0
   -6.4104   -1.2456    0.0000 H   0  0  0  0  0  0  0  0  0  0  0  0
   -7.7635    0.0115    0.0000 H   0  0  0  0  0  0  0  0  0  0  0  0
  1  2  1  0
  1 27  1  0
  1 28  1  0
  1 29  1  0
  2  3  1  0
  2  4  1  0
  2 26  1  0
  3  4  1  0
  3  7  1  0
  3 30  1  0
  4  5  1  0
  4  6  1  0
  5 31  1  0
  5 32  1  0
  5 33  1  0
  6 34  1  0
  6 35  1  0
  6 36  1  0
  7  8  2  0
  7  9  1  0
  9 10  1  0
 10 11  1  0
 10 13  1  0
 10 37  1  1
 11 12  3  0
 13 14  2  0
 13 18  1  0
 14 15  1  0
 14 38  1  0
 15 16  2  0
 15 19  1  0
 16 17  1  0
 16 39  1  0
 17 18  2  0
 17 40  1  0
 18 41  1  0
 19 20  1  0
 20 21  2  0
 20 25  1  0
 21 22  1  0
 21 42  1  0
 22 23  2  0
 22 43  1  0
 23 24  1  0
 23 44  1  0
 24 25  2  0
 24 45  1  0
 25 46  1  0
 26 47  1  0
 26 48  1  0
 26 49  1  0
M  END
$$$$

     RDKit          2D

 48 50  0  0  0  0  0  0  0  0999 V2000
    7.4752   -2.0926    0.0000 C   0  0  0  0  0  0  0  0  0  0  0  0
    6.7837   -0.7615    0.0000 O   0  0  0  0  0  0  0  0  0  0  0  0
    5.2852   -0.6948    0.0000 C   0  0  0  0  0  0  0  0  0  0  0  0
    4.4781   -1.9592    0.0000 C   0  0  0  0  0  0  0  0  0  0  0  0
    2.9796   -1.8925    0.0000 C   0  0  0  0  0  0  0  0  0  0  0  0
    2.2881   -0.5614    0.0000 C   0  0  0  0  0  0  0  0  0  0  0  0
    3.0952    0.7030    0.0000 C   0  0  0  0  0  0  0  0  0  0  0  0
    4.5937    0.6363    0.0000 C   0  0  0  0  0  0  0  0  0  0  0  0
    0.7896   -0.4947    0.0000 C   0  0  0  0  0  0  0  0  0  0  0  0
   -0.0174   -1.7591    0.0000 C   0  0  0  0  0  0  0  0  0  0  0  0
   -1.5159   -1.6924    0.0000 C   0  0  0  0  0  0  0  0  0  0  0  0
   -2.2074   -0.3613    0.0000 C   0  0  0  0  0  0  0  0  0  0  0  0
   -3.7059   -0.2946    0.0000 C   0  0  0  0  0  0  0  0  0  0  0  0
   -4.5130   -1.5590    0.0000 C   0  0  0  0  0  0  0  0  0  0  0  0
   -3.8215   -2.8901    0.0000 C   0  0  0  0  0  0  0  0  0  0  0  0
   -2.3230   -2.9568    0.0000 C   0  0  0  0  0  0  0  0  0  0  0  0
   -6.0115   -1.4923    0.0000 O   0  0  0  0  0  0  0  0  0  0  0  0
   -6.8185   -2.7567    0.0000 C   0  0  0  0  0  0  0  0  0  0  0  0
    0.6741   -3.0902    0.0000 Cl  0  0  0  0  0  0  0  0  0  0  0  0
    0.0981    0.8364    0.0000 C   0  0  0  0  0  0  0  0  0  0  0  0
   -1.4004    0.9031    0.0000 C   0  0  0  0  0  0  0  0  0  0  0  0
   -2.0919    2.2342    0.0000 C   0  0  0  0  0  0  0  0  0  0  0  0
   -1.2849    3.4986    0.0000 C   0  0  0  0  0  0  0  0  0  0  0  0
    0.2137    3.4319    0.0000 C   0  0  0  0  0  0  0  0  0  0  0  0
    0.9051    2.1008    0.0000 C   0  0  0  0  0  0  0  0  0  0  0  0
   -1.9764    4.8297    0.0000 O   0  0  0  0  0  0  0  0  0  0  0  0
   -1.1693    6.0941    0.0000 C   0  0  0  0  0  0  0  0  0  0  0  0
    8.8063   -1.4011    0.0000 H   0  0  0  0  0  0  0  0  0  0  0  0
    6.1441   -2.7841    0.0000 H   0  0  0  0  0  0  0  0  0  0  0  0
    8.1667   -3.4237    0.0000 H   0  0  0  0  0  0  0  0  0  0  0  0
    5.1696   -3.2903    0.0000 H   0  0  0  0  0  0  0  0  0  0  0  0
    2.1726   -3.1569    0.0000 H   0  0  0  0  0  0  0  0  0  0  0  0
    2.5711    2.1085    0.0000 H   0  0  0  0  0  0  0  0  0  0  0  0
    5.4007    1.9007    0.0000 H   0  0  0  0  0  0  0  0  0  0  0  0
   -1.9539    0.3945    0.0000 H   0  0  0  0  0  0  0  0  0  0  0  0
   -4.3974    1.0365    0.0000 H   0  0  0  0  0  0  0  0  0  0  0  0
   -4.6285   -4.1545    0.0000 H   0  0  0  0  0  0  0  0  0  0  0  0
   -1.6315   -4.2879    0.0000 H   0  0  0  0  0  0  0  0  0  0  0  0
   -8.0829   -1.9496    0.0000 H   0  0  0  0  0  0  0  0  0  0  0  0
   -5.5541   -3.5637    0.0000 H   0  0  0  0  0  0  0  0  0  0  0  0
   -7.6255   -4.0211    0.0000 H   0  0  0  0  0  0  0  0  0  0  0  0
   -2.4894   -0.1284    0.0000 H   0  0  0  0  0  0  0  0  0  0  0  0
   -3.5904    2.3009    0.0000 H   0  0  0  0  0  0  0  0  0  0  0  0
    1.0207    4.6963    0.0000 H   0  0  0  0  0  0  0  0  0  0  0  0
    2.4006    2.2173    0.0000 H   0  0  0  0  0  0  0  0  0  0  0  0
   -2.4337    6.9012    0.0000 H   0  0  0  0  0  0  0  0  0  0  0  0
    0.0951    5.2871    0.0000 H   0  0  0  0  0  0  0  0  0  0  0  0
   -0.3623    7.3585    0.0000 H   0  0  0  0  0  0  0  0  0  0  0  0
  1  2  1  0
  1 28  1  0
  1 29  1  0
  1 30  1  0
  2  3  1  0
  3  4  2  0
  3  8  1  0
  4  5  1  0
  4 31  1  0
  5  6  2  0
  5 32  1  0
  6  7  1  0
  6  9  1  0
  7  8  2  0
  7 33  1  0
  8 34  1  0
  9 10  2  0
  9 20  1  0
 10 11  1  0
 10 19  1  0
 11 12  2  0
 11 16  1  0
 12 13  1  0
 12 35  1  0
 13 14  2  0
 13 36  1  0
 14 15  1  0
 14 17  1  0
 15 16  2  0
 15 37  1  0
 16 38  1  0
 17 18  1  0
 18 39  1  0
 18 40  1  0
 18 41  1  0
 20 21  2  0
 20 25  1  0
 21 22  1  0
 21 42  1  0
 22 23  2  0
 22 43  1  0
 23 24  1  0
 23 26  1  0
 24 25  2  0
 24 44  1  0
 25 45  1  0
 26 27  1  0
 27 46  1  0
 27 47  1  0
 27 48  1  0
M  END
$$$$

     RDKit          2D

 42 41  0  0  0  0  0  0  0  0999 V2000
    0.0000    5.4978    0.0000 B   0  0  0  0  0  0  0  0  0  0  0  0
    1.5000    5.4978    0.0000 F   0  0  0  0  0  0  0  0  0  0  0  0
   -1.5000    5.4978    0.0000 F   0  0  0  0  0  0  0  0  0  0  0  0
    0.0000    6.9978    0.0000 F   0  0  0  0  0  0  0  0  0  0  0  0
   -0.0000    3.9978    0.0000 F   0  0  0  0  0  0  0  0  0  0  0  0
    7.9593   -0.2093    0.0000 C   0  0  0  0  0  0  0  0  0  0  0  0
    6.4609   -0.1405    0.0000 C   0  0  0  0  0  0  0  0  0  0  0  0
    4.9624   -0.0717    0.0000 C   0  0  0  0  0  0  0  0  0  0  0  0
    3.4640   -0.0028    0.0000 C   0  0  0  0  0  0  0  0  0  0  0  0
    1.9656    0.0660    0.0000 C   0  0  0  0  0  0  0  0  0  0  0  0
    0.4672    0.1348    0.0000 C   0  0  0  0  0  0  0  0  0  0  0  0
   -1.0312    0.2037    0.0000 C   0  0  0  0  0  0  0  0  0  0  0  0
   -2.5297    0.2725    0.0000 C   0  0  0  0  0  0  0  0  0  0  0  0
   -4.0281    0.3413    0.0000 N   0  0  0  0  0  0  0  0  0  0  0  0
   -4.8531    1.5940    0.0000 C   0  0  0  0  0  0  0  0  0  0  0  0
   -6.2995    1.1965    0.0000 C   0  0  0  0  0  0  0  0  0  0  0  0
   -6.3683   -0.3020    0.0000 N   0  0  0  0  0  0  0  0  0  0  0  0
   -4.9645   -0.8305    0.0000 C   0  0  0  0  0  0  0  0  0  0  0  0
   -7.6210   -1.1270    0.0000 C   0  0  0  0  0  0  0  0  0  0  0  0
    8.0281    1.2891    0.0000 H   0  0  0  0  0  0  0  0  0  0  0  0
    7.8905   -1.7077    0.0000 H   0  0  0  0  0  0  0  0  0  0  0  0
    9.4577   -0.2782    0.0000 H   0  0  0  0  0  0  0  0  0  0  0  0
    6.3920   -1.6389    0.0000 H   0  0  0  0  0  0  0  0  0  0  0  0
    6.5297    1.3579    0.0000 H   0  0  0  0  0  0  0  0  0  0  0  0
    5.0313    1.4268    0.0000 H   0  0  0  0  0  0  0  0  0  0  0  0
    4.8936   -1.5701    0.0000 H   0  0  0  0  0  0  0  0  0  0  0  0
    3.3952   -1.5013    0.0000 H   0  0  0  0  0  0  0  0  0  0  0  0
    3.5329    1.4956    0.0000 H   0  0  0  0  0  0  0  0  0  0  0  0
    2.0344    1.5644    0.0000 H   0  0  0  0  0  0  0  0  0  0  0  0
    1.8968   -1.4324    0.0000 H   0  0  0  0  0  0  0  0  0  0  0  0
    0.3984   -1.3636    0.0000 H   0  0  0  0  0  0  0  0  0  0  0  0
    0.5360    1.6333    0.0000 H   0  0  0  0  0  0  0  0  0  0  0  0
   -0.9624    1.7021    0.0000 H   0  0  0  0  0  0  0  0  0  0  0  0
   -1.1001   -1.2948    0.0000 H   0  0  0  0  0  0  0  0  0  0  0  0
   -2.5985   -1.2259    0.0000 H   0  0  0  0  0  0  0  0  0  0  0  0
   -2.4608    1.7709    0.0000 H   0  0  0  0  0  0  0  0  0  0  0  0
   -4.3246    2.9978    0.0000 H   0  0  0  0  0  0  0  0  0  0  0  0
   -7.4713    2.1329    0.0000 H   0  0  0  0  0  0  0  0  0  0  0  0
   -4.5669   -2.2768    0.0000 H   0  0  0  0  0  0  0  0  0  0  0  0
   -8.4461    0.1257    0.0000 H   0  0  0  0  0  0  0  0  0  0  0  0
   -6.7960   -2.3797    0.0000 H   0  0  0  0  0  0  0  0  0  0  0  0
   -8.8737   -1.9521    0.0000 H   0  0  0  0  0  0  0  0  0  0  0  0
  1  2  1  0
  1  3  1  0
  1  4  1  0
  1  5  1  0
  6  7  1  0
  6 20  1  0
  6 21  1  0
  6 22  1  0
  7  8  1  0
  7 23  1  0
  7 24  1  0
  8  9  1  0
  8 25  1  0
  8 26  1  0
  9 10  1  0
  9 27  1  0
  9 28  1  0
 10 11  1  0
 10 29  1  0
 10 30  1  0
 11 12  1  0
 11 31  1  0
 11 32  1  0
 12 13  1  0
 12 33  1  0
 12 34  1  0
 13 14  1  0
 13 35  1  0
 13 36  1  0
 14 15  1  0
 14 18  1  0
 15 16  2  0
 15 37  1  0
 16 17  1  0
 16 38  1  0
 17 18  2  0
 17 19  1  0
 18 39  1  0
 19 40  1  0
 19 41  1  0
 19 42  1  0
M  CHG  2   1  -1  17   1
M  END
$$$$

     RDKit          2D

 16 17  0  0  0  0  0  0  0  0999 V2000
   -2.9206   -1.0250    0.0000 C   0  0  0  0  0  0  0  0  0  0  0  0
   -1.6436   -1.8119    0.0000 N   0  0  0  0  0  0  0  0  0  0  0  0
   -0.5006   -0.8405    0.0000 C   0  0  0  0  0  0  0  0  0  0  0  0
   -1.0712    0.5467    0.0000 C   0  0  0  0  0  0  0  0  0  0  0  0
   -2.5669    0.4327    0.0000 N   0  0  0  0  0  0  0  0  0  0  0  0
   -0.1551    1.7345    0.0000 C   0  0  0  0  0  0  0  0  0  0  0  0
   -0.7257    3.1217    0.0000 S   0  0  0  0  0  0  0  0  0  0  0  0
    1.3316    1.5351    0.0000 N   0  0  0  0  0  0  0  0  0  0  0  0
    1.9022    0.1478    0.0000 C   0  0  0  0  0  0  0  0  0  0  0  0
    0.9861   -1.0399    0.0000 N   0  0  0  0  0  0  0  0  0  0  0  0
    3.3888   -0.0516    0.0000 N   0  0  0  0  0  0  0  0  0  0  0  0
   -4.3078   -1.5956    0.0000 H   0  0  0  0  0  0  0  0  0  0  0  0
   -3.5382    1.5757    0.0000 H   0  0  0  0  0  0  0  0  0  0  0  0
    1.5567   -2.4272    0.0000 H   0  0  0  0  0  0  0  0  0  0  0  0
    3.9595   -1.4388    0.0000 H   0  0  0  0  0  0  0  0  0  0  0  0
    4.3049    1.1362    0.0000 H   0  0  0  0  0  0  0  0  0  0  0  0
  1  2  2  0
  1  5  1  0
  1 12  1  0
  2  3  1  0
  3  4  2  0
  3 10  1  0
  4  5  1  0
  4  6  1  0
  5 13  1  0
  6  7  2  0
  6  8  1  0
  8  9  2  0
  9 10  1  0
  9 11  1  0
 10 14  1  0
 11 15  1  0
 11 16  1  0
M  END
$$$$

     RDKit          2D

 25 26  0  0  0  0  0  0  0  0999 V2000
   -4.1215   -0.6213    0.0000 C   0  0  0  0  0  0  0  0  0  0  0  0
   -3.9928    0.8732    0.0000 C   0  0  0  0  0  0  0  0  0  0  0  0
   -2.6342    1.5090    0.0000 C   0  0  0  0  0  0  0  0  0  0  0  0
   -1.4043    0.6503    0.0000 C   0  0  0  0  0  0  0  0  0  0  0  0
   -1.5330   -0.8442    0.0000 C   0  0  0  0  0  0  0  0  0  0  0  0
   -2.8916   -1.4800    0.0000 C   0  0  0  0  0  0  0  0  0  0  0  0
   -0.0457    1.2860    0.0000 C   0  0  0  0  0  0  0  0  0  0  0  0
    0.0830    2.7805    0.0000 O   0  0  0  0  0  0  0  0  0  0  0  0
    1.1842    0.4273    0.0000 C   0  0  0  0  0  0  0  0  0  0  0  0
    2.5428    1.0631    0.0000 C   0  0  0  0  0  0  0  0  0  0  0  0
    3.7727    0.2044    0.0000 C   0  0  0  0  0  0  0  0  0  0  0  0
    3.6440   -1.2901    0.0000 C   0  0  0  0  0  0  0  0  0  0  0  0
    2.2854   -1.9258    0.0000 C   0  0  0  0  0  0  0  0  0  0  0  0
    1.0555   -1.0671    0.0000 C   0  0  0  0  0  0  0  0  0  0  0  0
    2.1567   -3.4203    0.0000 Cl  0  0  0  0  0  0  0  0  0  0  0  0
    2.6715    2.5576    0.0000 O   0  0  0  0  0  0  0  0  0  0  0  0
   -5.4801   -1.2570    0.0000 H   0  0  0  0  0  0  0  0  0  0  0  0
   -5.2227    1.7319    0.0000 H   0  0  0  0  0  0  0  0  0  0  0  0
   -2.5055    3.0034    0.0000 H   0  0  0  0  0  0  0  0  0  0  0  0
   -0.8008   -1.5017    0.0000 H   0  0  0  0  0  0  0  0  0  0  0  0
   -3.0203   -2.9744    0.0000 H   0  0  0  0  0  0  0  0  0  0  0  0
    5.1313    0.8402    0.0000 H   0  0  0  0  0  0  0  0  0  0  0  0
    4.8739   -2.1488    0.0000 H   0  0  0  0  0  0  0  0  0  0  0  0
    0.2216   -1.5898    0.0000 H   0  0  0  0  0  0  0  0  0  0  0  0
    4.0301    3.1934    0.0000 H   0  0  0  0  0  0  0  0  0  0  0  0
  1  2  2  0
  1  6  1  0
  1 17  1  0
  2  3  1  0
  2 18  1  0
  3  4  2  0
  3 19  1  0
  4  5  1  0
  4  7  1  0
  5  6  2  0
  5 20  1  0
  6 21  1  0
  7  8  2  0
  7  9  1  0
  9 10  2  0
  9 14  1  0
 10 11  1  0
 10 16  1  0
 11 12  2  0
 11 22  1  0
 12 13  1  0
 12 23  1  0
 13 14  2  0
 13 15  1  0
 14 24  1  0
 16 25  1  0
M  END
$$$$

     RDKit          2D

 41 42  0  0  0  0  0  0  0  0999 V2000
   -6.0000   -1.0139    0.0000 C   0  0  0  0  0  0  0  0  0  0  0  0
   -7.5000   -1.0139    0.0000 C   0  0  0  0  0  0  0  0  0  0  0  0
   -8.2500    0.2852    0.0000 C   0  0  0  0  0  0  0  0  0  0  0  0
   -7.5000    1.5842    0.0000 C   0  0  0  0  0  0  0  0  0  0  0  0
   -6.0000    1.5842    0.0000 C   0  0  0  0  0  0  0  0  0  0  0  0
   -5.2500    0.2852    0.0000 C   0  0  0  0  0  0  0  0  0  0  0  0
   -3.7500    0.2852    0.0000 C   0  0  0  0  0  0  0  0  0  0  0  0
   -3.0000    1.5842    0.0000 O   0  0  0  0  0  0  0  0  0  0  0  0
   -3.0000   -1.0139    0.0000 O   0  0  0  0  0  0  0  0  0  0  0  0
   -1.5000   -1.0139    0.0000 C   0  0  0  0  0  0  0  0  0  0  0  0
    0.0000   -1.0139    0.0000 C   0  0  0  0  0  0  0  0  0  0  0  0
    1.5000   -1.0139    0.0000 C   0  0  0  0  0  0  0  0  0  0  0  0
    3.0000   -1.0139    0.0000 O   0  0  0  0  0  0  0  0  0  0  0  0
    3.7500    0.2852    0.0000 C   0  0  0  0  0  0  0  0  0  0  0  0
    3.0000    1.5842    0.0000 O   0  0  0  0  0  0  0  0  0  0  0  0
    5.2500    0.2852    0.0000 C   0  0  0  0  0  0  0  0  0  0  0  0
    6.0000   -1.0139    0.0000 C   0  0  0  0  0  0  0  0  0  0  0  0
    7.5000   -1.0139    0.0000 C   0  0  0  0  0  0  0  0  0  0  0  0
    8.2500    0.2852    0.0000 C   0  0  0  0  0  0  0  0  0  0  0  0
    7.5000    1.5842    0.0000 C   0  0  0  0  0  0  0  0  0  0  0  0
    6.0000    1.5842    0.0000 C   0  0  0  0  0  0  0  0  0  0  0  0
    9.7500    0.2852    0.0000 N   0  0  0  0  0  0  0  0  0  0  0  0
   -9.7500    0.2852    0.0000 N   0  0  0  0  0  0  0  0  0  0  0  0
   -5.2500   -2.3129    0.0000 H   0  0  0  0  0  0  0  0  0  0  0  0
   -8.2500   -2.3129    0.0000 H   0  0  0  0  0  0  0  0  0  0  0  0
   -8.2500    2.8832    0.0000 H   0  0  0  0  0  0  0  0  0  0  0  0
   -5.2500    2.8832    0.0000 H   0  0  0  0  0  0  0  0  0  0  0  0
   -1.5000   -2.5139    0.0000 H   0  0  0  0  0  0  0  0  0  0  0  0
   -1.5000    0.4861    0.0000 H   0  0  0  0  0  0  0  0  0  0  0  0
   -0.0000   -2.5139    0.0000 H   0  0  0  0  0  0  0  0  0  0  0  0
    0.0000    0.4861    0.0000 H   0  0  0  0  0  0  0  0  0  0  0  0
    1.5000    0.4861    0.0000 H   0  0  0  0  0  0  0  0  0  0  0  0
    1.5000   -2.5139    0.0000 H   0  0  0  0  0  0  0  0  0  0  0  0
    5.2500   -2.3129    0.0000 H   0  0  0  0  0  0  0  0  0  0  0  0
    8.2500   -2.3129    0.0000 H   0  0  0  0  0  0  0  0  0  0  0  0
    8.2500    2.8832    0.0000 H   0  0  0  0  0  0  0  0  0  0  0  0
    5.2500    2.8832    0.0000 H   0  0  0  0  0  0  0  0  0  0  0  0
   10.5000    1.5842    0.0000 H   0  0  0  0  0  0  0  0  0  0  0  0
   10.5000   -1.0139    0.0000 H   0  0  0  0  0  0  0  0  0  0  0  0
  -10.5000    1.5842    0.0000 H   0  0  0  0  0  0  0  0  0  0  0  0
  -10.5000   -1.0139    0.0000 H   0  0  0  0  0  0  0  0  0  0  0  0
  1  2  2  0
  1  6  1  0
  1 24  1  0
  2  3  1  0
  2 25  1  0
  3  4  2  0
  3 23  1  0
  4  5  1  0
  4 26  1  0
  5  6  2  0
  5 27  1  0
  6  7  1  0
  7  8  2  0
  7  9  1  0
  9 10  1  0
 10 11  1  0
 10 28  1  0
 10 29  1  0
 11 12  1  0
 11 30  1  0
 11 31  1  0
 12 13  1  0
 12 32  1  0
 12 33  1  0
 13 14  1  0
 14 15  2  0
 14 16  1  0
 16 17  2  0
 16 21  1  0
 17 18  1  0
 17 34  1  0
 18 19  2  0
 18 35  1  0
 19 20  1  0
 19 22  1  0
 20 21  2  0
 20 36  1  0
 21 37  1  0
 22 38  1  0
 22 39  1  0
 23 40  1  0
 23 41  1  0
M  END
$$$$

     RDKit          2D

 69 70  0  0  0  0  0  0  0  0999 V2000
   -7.9446   -0.0504    0.0000 C   0  0  0  0  0  0  0  0  0  0  0  0
   -6.6745   -0.8483    0.0000 C   0  0  0  0  0  0  0  0  0  0  0  0
   -5.4043   -1.6463    0.0000 N   0  0  0  0  0  0  0  0  0  0  0  0
   -5.4603   -3.1452    0.0000 C   0  0  0  0  0  0  0  0  0  0  0  0
   -5.5163   -4.6442    0.0000 C   0  0  0  0  0  0  0  0  0  0  0  0
   -4.0782   -0.9453    0.0000 C   0  0  0  0  0  0  0  0  0  0  0  0
   -4.0222    0.5537    0.0000 C   0  0  0  0  0  0  0  0  0  0  0  0
   -2.6961    1.2547    0.0000 C   0  0  0  0  0  0  0  0  0  0  0  0
   -1.4260    0.4567    0.0000 C   0  0  0  0  0  0  0  0  0  0  0  0
   -1.4819   -1.0423    0.0000 C   0  0  0  0  0  0  0  0  0  0  0  0
   -2.8081   -1.7433    0.0000 C   0  0  0  0  0  0  0  0  0  0  0  0
   -0.0998    1.1577    0.0000 C   0  0  0  0  0  0  0  0  0  0  0  0
    1.1703    0.3597    0.0000 C   0  0  0  0  0  0  0  0  0  0  0  0
    1.1143   -1.1392    0.0000 C   0  0  0  0  0  0  0  0  0  0  0  0
    2.3845   -1.9372    0.0000 C   0  0  0  0  0  0  0  0  0  0  0  0
    3.7106   -1.2362    0.0000 C   0  0  0  0  0  0  0  0  0  0  0  0
    4.9807   -2.0342    0.0000 N   0  0  0  0  0  0  0  0  0  0  0  0
    6.3069   -1.3332    0.0000 C   0  0  0  0  0  0  0  0  0  0  0  0
    7.6330   -0.6322    0.0000 C   0  0  0  0  0  0  0  0  0  0  0  0
    4.9247   -3.5331    0.0000 C   0  0  0  0  0  0  0  0  0  0  0  0
    4.8688   -5.0321    0.0000 C   0  0  0  0  0  0  0  0  0  0  0  0
    3.7666    0.2628    0.0000 C   0  0  0  0  0  0  0  0  0  0  0  0
    2.4964    1.0607    0.0000 C   0  0  0  0  0  0  0  0  0  0  0  0
   -0.0438    2.6566    0.0000 C   0  0  0  0  0  0  0  0  0  0  0  0
    1.2823    3.3576    0.0000 C   0  0  0  0  0  0  0  0  0  0  0  0
    1.3383    4.8566    0.0000 C   0  0  0  0  0  0  0  0  0  0  0  0
    0.0681    5.6546    0.0000 C   0  0  0  0  0  0  0  0  0  0  0  0
   -1.2580    4.9536    0.0000 C   0  0  0  0  0  0  0  0  0  0  0  0
   -1.3140    3.4546    0.0000 C   0  0  0  0  0  0  0  0  0  0  0  0
    0.1241    7.1535    0.0000 S   0  0  0  0  0  0  0  0  0  0  0  0
   -1.3748    7.2095    0.0000 O   0  0  0  0  0  0  0  0  0  0  0  0
    1.6231    7.0975    0.0000 O   0  0  0  0  0  0  0  0  0  0  0  0
    0.1801    8.6525    0.0000 O   0  0  0  0  0  0  0  0  0  0  0  0
    2.5524    2.5597    0.0000 S   0  0  0  0  0  0  0  0  0  0  0  0
    3.3504    3.8298    0.0000 O   0  0  0  0  0  0  0  0  0  0  0  0
    2.3043    1.8021    0.0000 O   0  0  0  0  0  0  0  0  0  0  0  0
    3.8226    1.7617    0.0000 O   0  0  0  0  0  0  0  0  0  0  0  0
    0.0000    9.6525    0.0000 Na  0  0  0  0  0 15  0  0  0  0  0  0
   -7.1467    1.2198    0.0000 H   0  0  0  0  0  0  0  0  0  0  0  0
   -8.7426   -1.3205    0.0000 H   0  0  0  0  0  0  0  0  0  0  0  0
   -9.2148    0.7476    0.0000 H   0  0  0  0  0  0  0  0  0  0  0  0
   -7.4724   -2.1185    0.0000 H   0  0  0  0  0  0  0  0  0  0  0  0
   -5.8765    0.4218    0.0000 H   0  0  0  0  0  0  0  0  0  0  0  0
   -6.9593   -3.0893    0.0000 H   0  0  0  0  0  0  0  0  0  0  0  0
   -3.9614   -3.2012    0.0000 H   0  0  0  0  0  0  0  0  0  0  0  0
   -7.0153   -4.5882    0.0000 H   0  0  0  0  0  0  0  0  0  0  0  0
   -4.0173   -4.7002    0.0000 H   0  0  0  0  0  0  0  0  0  0  0  0
   -5.5723   -6.1432    0.0000 H   0  0  0  0  0  0  0  0  0  0  0  0
   -5.2924    1.3516    0.0000 H   0  0  0  0  0  0  0  0  0  0  0  0
   -2.8232    2.7493    0.0000 H   0  0  0  0  0  0  0  0  0  0  0  0
   -0.3185   -1.9891    0.0000 H   0  0  0  0  0  0  0  0  0  0  0  0
   -2.8641   -3.2422    0.0000 H   0  0  0  0  0  0  0  0  0  0  0  0
   -0.1165   -1.9966    0.0000 H   0  0  0  0  0  0  0  0  0  0  0  0
    2.3285   -3.4361    0.0000 H   0  0  0  0  0  0  0  0  0  0  0  0
    7.0079   -2.6593    0.0000 H   0  0  0  0  0  0  0  0  0  0  0  0
    5.6059   -0.0070    0.0000 H   0  0  0  0  0  0  0  0  0  0  0  0
    8.3340   -1.9583    0.0000 H   0  0  0  0  0  0  0  0  0  0  0  0
    6.9320    0.6940    0.0000 H   0  0  0  0  0  0  0  0  0  0  0  0
    8.9591    0.0688    0.0000 H   0  0  0  0  0  0  0  0  0  0  0  0
    6.4237   -3.5891    0.0000 H   0  0  0  0  0  0  0  0  0  0  0  0
    3.4258   -3.4771    0.0000 H   0  0  0  0  0  0  0  0  0  0  0  0
    3.3698   -4.9761    0.0000 H   0  0  0  0  0  0  0  0  0  0  0  0
    6.3677   -5.0881    0.0000 H   0  0  0  0  0  0  0  0  0  0  0  0
    4.8128   -6.5310    0.0000 H   0  0  0  0  0  0  0  0  0  0  0  0
    5.0927    0.9638    0.0000 H   0  0  0  0  0  0  0  0  0  0  0  0
    2.9135    2.5016    0.0000 H   0  0  0  0  0  0  0  0  0  0  0  0
    2.6644    5.5576    0.0000 H   0  0  0  0  0  0  0  0  0  0  0  0
   -2.5281    5.7515    0.0000 H   0  0  0  0  0  0  0  0  0  0  0  0
   -2.7157    2.9205    0.0000 H   0  0  0  0  0  0  0  0  0  0  0  0
  1  2  1  0
  1 39  1  0
  1 40  1  0
  1 41  1  0
  2  3  1  0
  2 42  1  0
  2 43  1  0
  3  4  1  0
  3  6  1  0
  4  5  1  0
  4 44  1  0
  4 45  1  0
  5 46  1  0
  5 47  1  0
  5 48  1  0
  6  7  2  0
  6 11  1  0
  7  8  1  0
  7 49  1  0
  8  9  2  0
  8 50  1  0
  9 10  1  0
  9 12  1  0
 10 11  2  0
 10 51  1  0
 11 52  1  0
 12 13  2  0
 12 24  1  0
 13 14  1  0
 13 23  1  0
 14 15  2  0
 14 53  1  0
 15 16  1  0
 15 54  1  0
 16 17  2  0
 16 22  1  0
 17 18  1  0
 17 20  1  0
 18 19  1  0
 18 55  1  0
 18 56  1  0
 19 57  1  0
 19 58  1  0
 19 59  1  0
 20 21  1  0
 20 60  1  0
 20 61  1  0
 21 62  1  0
 21 63  1  0
 21 64  1  0
 22 23  2  0
 22 65  1  0
 23 66  1  0
 24 25  2  0
 24 29  1  0
 25 26  1  0
 25 34  1  0
 26 27  2  0
 26 67  1  0
 27 28  1  0
 27 30  1  0
 28 29  2  0
 28 68  1  0
 29 69  1  0
 30 31  2  0
 30 32  2  0
 30 33  1  0
 34 35  2  0
 34 36  2  0
 34 37  1  0
M  CHG  4  17   1  33  -1  37  -1  38   1
M  END
$$$$

     RDKit          2D

 39 41  0  0  0  0  0  0  0  0999 V2000
    5.3525    0.8067    0.0000 C   0  0  0  0  0  0  0  0  0  0  0  0
    4.1321   -0.0654    0.0000 C   0  0  0  0  0  0  0  0  0  0  0  0
    2.9117   -0.9375    0.0000 C   0  0  0  0  0  0  0  0  0  0  0  0
    1.6913   -1.8097    0.0000 C   0  0  0  0  0  0  0  0  0  0  0  0
    0.6788   -2.9165    0.0000 C   0  0  0  0  0  0  0  0  0  0  0  0
   -0.6867   -2.2956    0.0000 O   0  0  0  0  0  0  0  0  0  0  0  0
   -0.5182   -0.8051    0.0000 C   0  0  0  0  0  0  0  0  0  0  0  0
    0.9515   -0.5048    0.0000 O   0  0  0  0  0  0  0  0  0  0  0  0
   -2.0181   -0.7933    0.0000 C   0  0  0  0  0  0  0  0  0  0  0  0
   -3.5181   -0.7816    0.0000 N   0  0  0  0  0  0  0  0  0  0  0  0
   -4.4092   -1.9881    0.0000 C   0  0  0  0  0  0  0  0  0  0  0  0
   -5.8321   -1.5134    0.0000 N   0  0  0  0  0  0  0  0  0  0  0  0
   -5.8204   -0.0135    0.0000 C   0  0  0  0  0  0  0  0  0  0  0  0
   -4.3902    0.4389    0.0000 N   0  0  0  0  0  0  0  0  0  0  0  0
   -0.6632    0.6879    0.0000 C   0  0  0  0  0  0  0  0  0  0  0  0
   -2.0287    1.3087    0.0000 C   0  0  0  0  0  0  0  0  0  0  0  0
   -2.1738    2.8017    0.0000 C   0  0  0  0  0  0  0  0  0  0  0  0
   -0.9534    3.6738    0.0000 C   0  0  0  0  0  0  0  0  0  0  0  0
    0.4121    3.0530    0.0000 C   0  0  0  0  0  0  0  0  0  0  0  0
    0.5572    1.5600    0.0000 C   0  0  0  0  0  0  0  0  0  0  0  0
   -1.0985    5.1668    0.0000 Cl  0  0  0  0  0  0  0  0  0  0  0  0
   -3.2491    0.4366    0.0000 Cl  0  0  0  0  0  0  0  0  0  0  0  0
    4.4804    2.0271    0.0000 H   0  0  0  0  0  0  0  0  0  0  0  0
    6.2246   -0.4137    0.0000 H   0  0  0  0  0  0  0  0  0  0  0  0
    6.5729    1.6788    0.0000 H   0  0  0  0  0  0  0  0  0  0  0  0
    5.0042   -1.2858    0.0000 H   0  0  0  0  0  0  0  0  0  0  0  0
    3.2599    1.1550    0.0000 H   0  0  0  0  0  0  0  0  0  0  0  0
    3.7838   -2.1579    0.0000 H   0  0  0  0  0  0  0  0  0  0  0  0
    2.2665    0.2483    0.0000 H   0  0  0  0  0  0  0  0  0  0  0  0
    2.6862   -2.9322    0.0000 H   0  0  0  0  0  0  0  0  0  0  0  0
   -0.0813   -4.2096    0.0000 H   0  0  0  0  0  0  0  0  0  0  0  0
    1.8854   -3.8076    0.0000 H   0  0  0  0  0  0  0  0  0  0  0  0
   -2.3345    0.5191    0.0000 H   0  0  0  0  0  0  0  0  0  0  0  0
   -2.0299   -2.2933    0.0000 H   0  0  0  0  0  0  0  0  0  0  0  0
   -3.9569   -3.4183    0.0000 H   0  0  0  0  0  0  0  0  0  0  0  0
   -7.0269    0.8777    0.0000 H   0  0  0  0  0  0  0  0  0  0  0  0
   -3.5393    3.4225    0.0000 H   0  0  0  0  0  0  0  0  0  0  0  0
    1.6325    3.9251    0.0000 H   0  0  0  0  0  0  0  0  0  0  0  0
    1.8451    1.1552    0.0000 H   0  0  0  0  0  0  0  0  0  0  0  0
  1  2  1  0
  1 23  1  0
  1 24  1  0
  1 25  1  0
  2  3  1  0
  2 26  1  0
  2 27  1  0
  3  4  1  0
  3 28  1  0
  3 29  1  0
  4  5  1  0
  4  8  1  0
  4 30  1  1
  5  6  1  0
  5 31  1  0
  5 32  1  0
  6  7  1  0
  7  8  1  0
  7  9  1  6
  7 15  1  0
  9 10  1  0
  9 33  1  0
  9 34  1  0
 10 11  1  0
 10 14  1  0
 11 12  2  0
 11 35  1  0
 12 13  1  0
 13 14  2  0
 13 36  1  0
 15 16  2  0
 15 20  1  0
 16 17  1  0
 16 22  1  0
 17 18  2  0
 17 37  1  0
 18 19  1  0
 18 21  1  0
 19 20  2  0
 19 38  1  0
 20 39  1  0
M  END
$$$$

     RDKit          2D

 27 26  0  0  0  0  0  0  0  0999 V2000
   -0.7298    2.7065    0.0000 C   0  0  0  0  0  0  0  0  0  0  0  0
    0.0748    1.4406    0.0000 C   0  0  0  0  0  0  0  0  0  0  0  0
   -0.6192    0.1108    0.0000 C   0  0  0  0  0  0  0  0  0  0  0  0
   -2.1179    0.0470    0.0000 C   0  0  0  0  0  0  0  0  0  0  0  0
   -2.9225    1.3129    0.0000 O   0  0  0  0  0  0  0  0  0  0  0  0
   -2.8119   -1.2828    0.0000 O   0  0  0  0  0  0  0  0  0  0  0  0
   -4.3106   -1.3466    0.0000 C   0  0  0  0  0  0  0  0  0  0  0  0
    1.5735    1.5044    0.0000 O   0  0  0  0  0  0  0  0  0  0  0  0
    2.3781    0.2385    0.0000 P   0  0  0  0  0  0  0  0  0  0  0  0
    3.0721    1.5683    0.0000 O   0  0  0  0  0  0  0  0  0  0  0  0
    0.8794    0.1747    0.0000 O   0  0  0  0  0  0  0  0  0  0  0  0
    0.1854   -1.1551    0.0000 C   0  0  0  0  0  0  0  0  0  0  0  0
    3.1826   -1.0275    0.0000 O   0  0  0  0  0  0  0  0  0  0  0  0
    4.6813   -0.9636    0.0000 C   0  0  0  0  0  0  0  0  0  0  0  0
   -1.9957    1.9020    0.0000 H   0  0  0  0  0  0  0  0  0  0  0  0
    0.5362    3.5111    0.0000 H   0  0  0  0  0  0  0  0  0  0  0  0
   -1.5344    3.9725    0.0000 H   0  0  0  0  0  0  0  0  0  0  0  0
   -0.3671   -0.6454    0.0000 H   0  0  0  0  0  0  0  0  0  0  0  0
   -4.2467   -2.8452    0.0000 H   0  0  0  0  0  0  0  0  0  0  0  0
   -4.3744    0.1520    0.0000 H   0  0  0  0  0  0  0  0  0  0  0  0
   -5.8092   -1.4104    0.0000 H   0  0  0  0  0  0  0  0  0  0  0  0
   -1.2728   -0.8035    0.0000 H   0  0  0  0  0  0  0  0  0  0  0  0
    1.5151   -1.8492    0.0000 H   0  0  0  0  0  0  0  0  0  0  0  0
   -0.5087   -2.4849    0.0000 H   0  0  0  0  0  0  0  0  0  0  0  0
    4.7451   -2.4623    0.0000 H   0  0  0  0  0  0  0  0  0  0  0  0
    4.6175    0.5350    0.0000 H   0  0  0  0  0  0  0  0  0  0  0  0
    6.1799   -0.8998    0.0000 H   0  0  0  0  0  0  0  0  0  0  0  0
  1  2  1  0
  1 15  1  0
  1 16  1  0
  1 17  1  0
  2  3  2  0
  2  8  1  0
  3  4  1  0
  3 18  1  0
  4  5  2  0
  4  6  1  0
  6  7  1  0
  7 19  1  0
  7 20  1  0
  7 21  1  0
  8  9  1  0
  9 10  2  0
  9 11  1  0
  9 13  1  0
 11 12  1  0
 12 22  1  0
 12 23  1  0
 12 24  1  0
 13 14  1  0
 14 25  1  0
 14 26  1  0
 14 27  1  0
M  END
$$$$

     RDKit          2D

 62 64  0  0  1  0  0  0  0  0999 V2000
   -5.4357    2.1012    0.0000 C   0  0  0  0  0  0  0  0  0  0  0  0
   -3.9373    2.1694    0.0000 C   0  0  0  0  0  0  0  0  0  0  0  0
   -2.4388    2.2376    0.0000 C   0  0  0  0  0  0  0  0  0  0  0  0
   -2.3706    0.7391    0.0000 C   0  0  0  0  0  0  0  0  0  0  0  0
   -0.9404    2.3058    0.0000 C   0  0  0  0  0  0  0  0  0  0  0  0
   -0.4177    3.7118    0.0000 O   0  0  0  0  0  0  0  0  0  0  0  0
   -0.1321    1.0422    0.0000 O   0  0  0  0  0  0  0  0  0  0  0  0
    1.3663    1.1104    0.0000 C   0  0  0  0  0  0  0  0  0  0  0  0
    1.0390    2.5742    0.0000 C   0  0  0  0  0  0  0  0  0  0  0  0
    2.1430    3.5897    0.0000 C   0  0  0  0  0  0  0  0  0  0  0  0
    3.5744    3.1412    0.0000 C   0  0  0  0  0  0  0  0  0  0  0  0
    3.9018    1.6774    0.0000 C   0  0  0  0  0  0  0  0  0  0  0  0
    2.7977    0.6620    0.0000 C   0  0  0  0  0  0  0  0  0  0  0  0
    3.1251   -0.8019    0.0000 C   0  0  0  0  0  0  0  0  0  0  0  0
    4.5565   -1.2503    0.0000 C   0  0  0  0  0  0  0  0  0  0  0  0
    5.6606   -0.2349    0.0000 C   0  0  0  0  0  0  0  0  0  0  0  0
    5.3332    1.2290    0.0000 C   0  0  0  0  0  0  0  0  0  0  0  0
    3.8663   -2.5821    0.0000 C   0  0  0  0  0  0  0  0  0  0  0  0
    1.6267   -0.8701    0.0000 C   0  0  0  0  0  0  0  0  0  0  0  0
    0.1282   -0.9383    0.0000 C   0  0  0  0  0  0  0  0  0  0  0  0
   -1.3702   -1.0065    0.0000 C   0  0  0  0  0  0  0  0  0  0  0  0
   -1.0429   -2.4703    0.0000 C   0  0  0  0  0  0  0  0  0  0  0  0
   -2.1469   -3.4857    0.0000 C   0  0  0  0  0  0  0  0  0  0  0  0
   -3.5783   -3.0373    0.0000 C   0  0  0  0  0  0  0  0  0  0  0  0
   -3.9057   -1.5735    0.0000 C   0  0  0  0  0  0  0  0  0  0  0  0
   -5.3371   -1.1250    0.0000 O   0  0  0  0  0  0  0  0  0  0  0  0
   -2.8016   -0.5580    0.0000 O   0  0  0  0  0  0  0  0  0  0  0  0
   -0.9552   -4.3967    0.0000 O   0  0  0  0  0  0  0  0  0  0  0  0
   -5.5039    3.5997    0.0000 H   0  0  0  0  0  0  0  0  0  0  0  0
   -5.3675    0.6028    0.0000 H   0  0  0  0  0  0  0  0  0  0  0  0
   -6.9342    2.0330    0.0000 H   0  0  0  0  0  0  0  0  0  0  0  0
   -4.0055    3.6679    0.0000 H   0  0  0  0  0  0  0  0  0  0  0  0
   -4.0052    1.2863    0.0000 H   0  0  0  0  0  0  0  0  0  0  0  0
   -2.5070    3.7360    0.0000 H   0  0  0  0  0  0  0  0  0  0  0  0
   -3.2440    0.5913    0.0000 H   0  0  0  0  0  0  0  0  0  0  0  0
   -1.0246    0.6357    0.0000 H   0  0  0  0  0  0  0  0  0  0  0  0
   -2.5282   -0.0423    0.0000 H   0  0  0  0  0  0  0  0  0  0  0  0
    0.6529   -0.2091    0.0000 H   0  0  0  0  0  0  0  0  0  0  0  0
   -0.4441    2.3499    0.0000 H   0  0  0  0  0  0  0  0  0  0  0  0
    0.3908    3.9269    0.0000 H   0  0  0  0  0  0  0  0  0  0  0  0
    0.9513    4.5006    0.0000 H   0  0  0  0  0  0  0  0  0  0  0  0
    2.8332    4.9214    0.0000 H   0  0  0  0  0  0  0  0  0  0  0  0
    4.6785    4.1567    0.0000 H   0  0  0  0  0  0  0  0  0  0  0  0
    1.5782   -0.2113    0.0000 H   0  0  0  0  0  0  0  0  0  0  0  0
    2.7522   -2.2548    0.0000 H   0  0  0  0  0  0  0  0  0  0  0  0
    5.7482   -2.1612    0.0000 H   0  0  0  0  0  0  0  0  0  0  0  0
    7.0920   -0.6833    0.0000 H   0  0  0  0  0  0  0  0  0  0  0  0
    6.4372    2.2444    0.0000 H   0  0  0  0  0  0  0  0  0  0  0  0
    2.4604   -2.0594    0.0000 H   0  0  0  0  0  0  0  0  0  0  0  0
    5.1981   -3.2723    0.0000 H   0  0  0  0  0  0  0  0  0  0  0  0
    3.1762   -3.9139    0.0000 H   0  0  0  0  0  0  0  0  0  0  0  0
    1.6948   -2.3685    0.0000 H   0  0  0  0  0  0  0  0  0  0  0  0
    1.1979    0.5674    0.0000 H   0  0  0  0  0  0  0  0  0  0  0  0
   -0.3005    0.4992    0.0000 H   0  0  0  0  0  0  0  0  0  0  0  0
    0.3785   -2.4172    0.0000 H   0  0  0  0  0  0  0  0  0  0  0  0
   -0.9973    0.4464    0.0000 H   0  0  0  0  0  0  0  0  0  0  0  0
   -0.2346   -3.7339    0.0000 H   0  0  0  0  0  0  0  0  0  0  0  0
    0.4018   -2.0668    0.0000 H   0  0  0  0  0  0  0  0  0  0  0  0
   -2.8371   -4.8175    0.0000 H   0  0  0  0  0  0  0  0  0  0  0  0
   -5.0768   -3.1055    0.0000 H   0  0  0  0  0  0  0  0  0  0  0  0
   -3.7714   -4.5248    0.0000 H   0  0  0  0  0  0  0  0  0  0  0  0
   -1.1483   -5.8842    0.0000 H   0  0  0  0  0  0  0  0  0  0  0  0
  1  2  1  0
  1 29  1  0
  1 30  1  0
  1 31  1  0
  2 32  1  0
  2 33  1  0
  3  5  1  0
  3 34  1  6
  3  4  1  0
  3  2  1  0
  4 35  1  0
  4 36  1  0
  4 37  1  0
  5  6  2  0
  5  7  1  0
  8  9  1  0
  8 13  1  0
  8 38  1  6
  8  7  1  0
  9 10  1  0
  9 39  1  0
  9 40  1  0
 10 11  1  0
 10 41  1  0
 10 42  1  0
 11 12  2  0
 11 43  1  0
 12 13  1  0
 12 17  1  0
 13 14  1  0
 13 44  1  6
 14 15  1  0
 14 45  1  1
 14 19  1  0
 15 16  1  0
 15 46  1  1
 15 18  1  0
 16 17  2  0
 16 47  1  0
 17 48  1  0
 18 49  1  0
 18 50  1  0
 18 51  1  0
 19 20  1  0
 19 52  1  0
 19 53  1  0
 20 21  1  0
 20 54  1  0
 20 55  1  0
 21 22  1  0
 21 27  1  0
 21 56  1  1
 22 23  1  0
 22 57  1  0
 22 58  1  0
 23 24  1  0
 23 28  1  0
 23 59  1  6
 24 25  1  0
 24 60  1  0
 24 61  1  0
 25 26  2  0
 25 27  1  0
 28 62  1  0
M  END
$$$$

     RDKit          2D

 63 65  0  0  1  0  0  0  0  0999 V2000
    0.1853   -5.4314    0.0000 C   0  0  0  0  0  0  0  0  0  0  0  0
    0.6503   -4.0054    0.0000 C   0  0  0  0  0  0  0  0  0  0  0  0
    2.1448   -3.8763    0.0000 O   0  0  0  0  0  0  0  0  0  0  0  0
   -0.3521   -2.8896    0.0000 O   0  0  0  0  0  0  0  0  0  0  0  0
    0.1129   -1.4635    0.0000 C   0  0  0  0  0  0  0  0  0  0  0  0
   -1.3722   -1.2531    0.0000 C   0  0  0  0  0  0  0  0  0  0  0  0
   -1.9327    0.1383    0.0000 C   0  0  0  0  0  0  0  0  0  0  0  0
   -1.0079    1.3193    0.0000 C   0  0  0  0  0  0  0  0  0  0  0  0
   -1.5683    2.7107    0.0000 C   0  0  0  0  0  0  0  0  0  0  0  0
   -3.0535    2.9210    0.0000 C   0  0  0  0  0  0  0  0  0  0  0  0
   -3.9782    1.7400    0.0000 C   0  0  0  0  0  0  0  0  0  0  0  0
   -3.4178    0.3486    0.0000 C   0  0  0  0  0  0  0  0  0  0  0  0
   -3.3671   -1.1505    0.0000 C   0  0  0  0  0  0  0  0  0  0  0  0
   -4.8854    0.0384    0.0000 C   0  0  0  0  0  0  0  0  0  0  0  0
   -0.1007    3.0210    0.0000 O   0  0  0  0  0  0  0  0  0  0  0  0
    0.4773    1.1089    0.0000 C   0  0  0  0  0  0  0  0  0  0  0  0
    1.0377   -0.2825    0.0000 C   0  0  0  0  0  0  0  0  0  0  0  0
    2.5229   -0.4928    0.0000 O   0  0  0  0  0  0  0  0  0  0  0  0
    3.4476    0.6882    0.0000 C   0  0  0  0  0  0  0  0  0  0  0  0
    2.8872    2.0796    0.0000 C   0  0  0  0  0  0  0  0  0  0  0  0
    1.4021    2.2899    0.0000 C   0  0  0  0  0  0  0  0  0  0  0  0
    1.1950    3.7756    0.0000 O   0  0  0  0  0  0  0  0  0  0  0  0
    4.7206    1.4817    0.0000 C   0  0  0  0  0  0  0  0  0  0  0  0
    4.4501   -0.4276    0.0000 C   0  0  0  0  0  0  0  0  0  0  0  0
    5.9177   -0.1173    0.0000 C   0  0  0  0  0  0  0  0  0  0  0  0
    1.5981   -1.6738    0.0000 C   0  0  0  0  0  0  0  0  0  0  0  0
   -0.4475   -0.0721    0.0000 O   0  0  0  0  0  0  0  0  0  0  0  0
   -0.0831    2.5003    0.0000 C   0  0  0  0  0  0  0  0  0  0  0  0
   -2.8398   -1.5634    0.0000 O   0  0  0  0  0  0  0  0  0  0  0  0
    1.6114   -5.8965    0.0000 H   0  0  0  0  0  0  0  0  0  0  0  0
   -1.2408   -4.9664    0.0000 H   0  0  0  0  0  0  0  0  0  0  0  0
   -0.2798   -6.8575    0.0000 H   0  0  0  0  0  0  0  0  0  0  0  0
    1.2265   -2.4684    0.0000 H   0  0  0  0  0  0  0  0  0  0  0  0
   -1.3215   -2.7522    0.0000 H   0  0  0  0  0  0  0  0  0  0  0  0
   -2.8574   -1.0427    0.0000 H   0  0  0  0  0  0  0  0  0  0  0  0
   -1.8014    4.1925    0.0000 H   0  0  0  0  0  0  0  0  0  0  0  0
   -4.3771    3.6267    0.0000 H   0  0  0  0  0  0  0  0  0  0  0  0
   -2.5884    4.3471    0.0000 H   0  0  0  0  0  0  0  0  0  0  0  0
   -5.3384    1.1076    0.0000 H   0  0  0  0  0  0  0  0  0  0  0  0
   -4.9807    2.8558    0.0000 H   0  0  0  0  0  0  0  0  0  0  0  0
   -4.8489   -1.3836    0.0000 H   0  0  0  0  0  0  0  0  0  0  0  0
   -1.9002   -1.4640    0.0000 H   0  0  0  0  0  0  0  0  0  0  0  0
   -3.4995   -2.6446    0.0000 H   0  0  0  0  0  0  0  0  0  0  0  0
   -4.7563   -1.4561    0.0000 H   0  0  0  0  0  0  0  0  0  0  0  0
   -5.3722    1.4572    0.0000 H   0  0  0  0  0  0  0  0  0  0  0  0
   -6.3529   -0.2719    0.0000 H   0  0  0  0  0  0  0  0  0  0  0  0
    0.0054    4.5172    0.0000 H   0  0  0  0  0  0  0  0  0  0  0  0
    2.8365    3.5787    0.0000 H   0  0  0  0  0  0  0  0  0  0  0  0
    4.3060    2.5664    0.0000 H   0  0  0  0  0  0  0  0  0  0  0  0
    5.7985    0.4386    0.0000 H   0  0  0  0  0  0  0  0  0  0  0  0
    4.0882    2.8419    0.0000 H   0  0  0  0  0  0  0  0  0  0  0  0
    5.9935    2.2752    0.0000 H   0  0  0  0  0  0  0  0  0  0  0  0
    3.9851   -1.8537    0.0000 H   0  0  0  0  0  0  0  0  0  0  0  0
    6.9202   -1.2331    0.0000 H   0  0  0  0  0  0  0  0  0  0  0  0
    6.3828    1.3088    0.0000 H   0  0  0  0  0  0  0  0  0  0  0  0
    3.0837   -1.4668    0.0000 H   0  0  0  0  0  0  0  0  0  0  0  0
    0.7800   -2.9311    0.0000 H   0  0  0  0  0  0  0  0  0  0  0  0
    2.3239   -2.9865    0.0000 H   0  0  0  0  0  0  0  0  0  0  0  0
   -0.4230   -1.5719    0.0000 H   0  0  0  0  0  0  0  0  0  0  0  0
   -0.8542    3.7870    0.0000 H   0  0  0  0  0  0  0  0  0  0  0  0
    1.3938    2.2384    0.0000 H   0  0  0  0  0  0  0  0  0  0  0  0
    0.8417    3.6813    0.0000 H   0  0  0  0  0  0  0  0  0  0  0  0
   -3.1276   -3.0355    0.0000 H   0  0  0  0  0  0  0  0  0  0  0  0
  1  2  1  0
  1 30  1  0
  1 31  1  0
  1 32  1  0
  2  3  2  0
  2  4  1  0
  5  6  1  0
  5 17  1  0
  5 33  1  6
  5  4  1  0
  6  7  1  0
  6 34  1  1
  6 29  1  0
  7  8  1  0
  7 12  1  0
  7 35  1  1
  8  9  1  0
  8 16  1  0
  8 28  1  6
  9 10  1  0
  9 15  1  0
  9 36  1  1
 10 11  1  0
 10 37  1  0
 10 38  1  0
 11 12  1  0
 11 39  1  0
 11 40  1  0
 12 13  1  0
 12 14  1  0
 13 41  1  0
 13 42  1  0
 13 43  1  0
 14 44  1  0
 14 45  1  0
 14 46  1  0
 15 47  1  0
 16 17  1  0
 16 21  1  0
 16 27  1  1
 17 18  1  0
 17 26  1  1
 18 19  1  0
 19 20  1  0
 19 23  1  1
 19 24  1  0
 20 21  1  0
 20 48  1  0
 20 49  1  0
 21 22  2  0
 23 50  1  0
 23 51  1  0
 23 52  1  0
 24 25  2  0
 24 53  1  0
 25 54  1  0
 25 55  1  0
 26 56  1  0
 26 57  1  0
 26 58  1  0
 27 59  1  0
 28 60  1  0
 28 61  1  0
 28 62  1  0
 29 63  1  0
M  END
$$$$

     RDKit          2D

 68 69  0  0  0  0  0  0  0  0999 V2000
   -7.5747   -1.5510    0.0000 C   0  0  0  0  0  0  0  0  0  0  0  0
   -7.6957   -0.0559    0.0000 C   0  0  0  0  0  0  0  0  0  0  0  0
   -7.8167    1.4392    0.0000 C   0  0  0  0  0  0  0  0  0  0  0  0
   -9.1908   -0.1769    0.0000 C   0  0  0  0  0  0  0  0  0  0  0  0
   -6.2006    0.0651    0.0000 C   0  0  0  0  0  0  0  0  0  0  0  0
   -5.5578    1.4204    0.0000 C   0  0  0  0  0  0  0  0  0  0  0  0
   -4.0627    1.5414    0.0000 C   0  0  0  0  0  0  0  0  0  0  0  0
   -3.2104    0.3071    0.0000 C   0  0  0  0  0  0  0  0  0  0  0  0
   -3.8531   -1.0482    0.0000 C   0  0  0  0  0  0  0  0  0  0  0  0
   -5.3482   -1.1692    0.0000 C   0  0  0  0  0  0  0  0  0  0  0  0
   -1.7153    0.4281    0.0000 C   0  0  0  0  0  0  0  0  0  0  0  0
   -0.2201    0.5491    0.0000 N   0  0  0  0  0  0  0  0  0  0  0  0
    0.6322   -0.6852    0.0000 C   0  0  0  0  0  0  0  0  0  0  0  0
    2.1273   -0.5642    0.0000 C   0  0  0  0  0  0  0  0  0  0  0  0
    2.7701    0.7911    0.0000 N   0  0  0  0  0  0  0  0  0  0  0  0
    1.9177    2.0254    0.0000 C   0  0  0  0  0  0  0  0  0  0  0  0
    0.4226    1.9044    0.0000 C   0  0  0  0  0  0  0  0  0  0  0  0
    4.2652    0.9121    0.0000 C   0  0  0  0  0  0  0  0  0  0  0  0
    4.3862   -0.5830    0.0000 C   0  0  0  0  0  0  0  0  0  0  0  0
    3.1519   -1.4353    0.0000 C   0  0  0  0  0  0  0  0  0  0  0  0
    3.2729   -2.9304    0.0000 C   0  0  0  0  0  0  0  0  0  0  0  0
    4.6282   -3.5732    0.0000 C   0  0  0  0  0  0  0  0  0  0  0  0
    5.8625   -2.7209    0.0000 C   0  0  0  0  0  0  0  0  0  0  0  0
    5.7415   -1.2258    0.0000 C   0  0  0  0  0  0  0  0  0  0  0  0
    5.7603    1.0331    0.0000 C   0  0  0  0  0  0  0  0  0  0  0  0
    6.6126   -0.2012    0.0000 C   0  0  0  0  0  0  0  0  0  0  0  0
    8.1078   -0.0802    0.0000 C   0  0  0  0  0  0  0  0  0  0  0  0
    8.7505    1.2751    0.0000 C   0  0  0  0  0  0  0  0  0  0  0  0
    7.8982    2.5094    0.0000 C   0  0  0  0  0  0  0  0  0  0  0  0
    6.4031    2.3884    0.0000 C   0  0  0  0  0  0  0  0  0  0  0  0
   10.2456    1.3961    0.0000 Cl  0  0  0  0  0  0  0  0  0  0  0  0
   -0.7500    4.8647    0.0000 Cl  0  0  0  0  0  0  0  0  0  0  0  0
   -0.7500    5.8647    0.0000 Cl  0  0  0  0  0  0  0  0  0  0  0  0
   -8.4423   -1.7295    0.0000 H   0  0  0  0  0  0  0  0  0  0  0  0
   -6.0947   -1.7954    0.0000 H   0  0  0  0  0  0  0  0  0  0  0  0
   -7.4537   -3.0461    0.0000 H   0  0  0  0  0  0  0  0  0  0  0  0
   -8.7017    1.4759    0.0000 H   0  0  0  0  0  0  0  0  0  0  0  0
   -6.9774    1.7222    0.0000 H   0  0  0  0  0  0  0  0  0  0  0  0
   -7.9377    2.9343    0.0000 H   0  0  0  0  0  0  0  0  0  0  0  0
   -9.3693    0.6907    0.0000 H   0  0  0  0  0  0  0  0  0  0  0  0
   -9.2275   -1.0619    0.0000 H   0  0  0  0  0  0  0  0  0  0  0  0
  -10.6859   -0.2979    0.0000 H   0  0  0  0  0  0  0  0  0  0  0  0
   -6.0611    2.1493    0.0000 H   0  0  0  0  0  0  0  0  0  0  0  0
   -3.4199    2.8967    0.0000 H   0  0  0  0  0  0  0  0  0  0  0  0
   -3.0008   -2.2825    0.0000 H   0  0  0  0  0  0  0  0  0  0  0  0
   -5.9910   -2.5245    0.0000 H   0  0  0  0  0  0  0  0  0  0  0  0
   -2.0176    1.8973    0.0000 H   0  0  0  0  0  0  0  0  0  0  0  0
   -1.7774   -1.0706    0.0000 H   0  0  0  0  0  0  0  0  0  0  0  0
    1.0110   -2.1366    0.0000 H   0  0  0  0  0  0  0  0  0  0  0  0
   -0.6450   -1.4718    0.0000 H   0  0  0  0  0  0  0  0  0  0  0  0
    3.4344   -1.3000    0.0000 H   0  0  0  0  0  0  0  0  0  0  0  0
    1.9868   -2.0576    0.0000 H   0  0  0  0  0  0  0  0  0  0  0  0
    1.5389    3.4768    0.0000 H   0  0  0  0  0  0  0  0  0  0  0  0
    3.1949    2.8120    0.0000 H   0  0  0  0  0  0  0  0  0  0  0  0
   -0.9645    2.4754    0.0000 H   0  0  0  0  0  0  0  0  0  0  0  0
    0.5631    3.3978    0.0000 H   0  0  0  0  0  0  0  0  0  0  0  0
    4.3273    2.4108    0.0000 H   0  0  0  0  0  0  0  0  0  0  0  0
    1.6813   -1.1396    0.0000 H   0  0  0  0  0  0  0  0  0  0  0  0
    2.0386   -3.7828    0.0000 H   0  0  0  0  0  0  0  0  0  0  0  0
    4.7492   -5.0683    0.0000 H   0  0  0  0  0  0  0  0  0  0  0  0
    7.2178   -3.3636    0.0000 H   0  0  0  0  0  0  0  0  0  0  0  0
    7.1454   -0.6974    0.0000 H   0  0  0  0  0  0  0  0  0  0  0  0
    6.3169   -1.6717    0.0000 H   0  0  0  0  0  0  0  0  0  0  0  0
    8.9601   -1.3145    0.0000 H   0  0  0  0  0  0  0  0  0  0  0  0
    8.5409    3.8647    0.0000 H   0  0  0  0  0  0  0  0  0  0  0  0
    5.5507    3.6227    0.0000 H   0  0  0  0  0  0  0  0  0  0  0  0
    0.7500    4.8647    0.0000 H   0  0  0  0  0  0  0  0  0  0  0  0
    0.7500    5.8647    0.0000 H   0  0  0  0  0  0  0  0  0  0  0  0
  1  2  1  0
  1 34  1  0
  1 35  1  0
  1 36  1  0
  2  3  1  0
  2  4  1  0
  2  5  1  0
  3 37  1  0
  3 38  1  0
  3 39  1  0
  4 40  1  0
  4 41  1  0
  4 42  1  0
  5  6  2  0
  5 10  1  0
  6  7  1  0
  6 43  1  0
  7  8  2  0
  7 44  1  0
  8  9  1  0
  8 11  1  0
  9 10  2  0
  9 45  1  0
 10 46  1  0
 11 12  1  0
 11 47  1  0
 11 48  1  0
 12 13  1  0
 12 17  1  0
 13 14  1  0
 13 49  1  0
 13 50  1  0
 14 15  1  0
 14 51  1  0
 14 52  1  0
 15 16  1  0
 15 18  1  0
 16 17  1  0
 16 53  1  0
 16 54  1  0
 17 55  1  0
 17 56  1  0
 18 19  1  0
 18 25  1  0
 18 57  1  1
 19 20  2  0
 19 24  1  0
 20 21  1  0
 20 58  1  0
 21 22  2  0
 21 59  1  0
 22 23  1  0
 22 60  1  0
 23 24  2  0
 23 61  1  0
 24 62  1  0
 25 26  2  0
 25 30  1  0
 26 27  1  0
 26 63  1  0
 27 28  2  0
 27 64  1  0
 28 29  1  0
 28 31  1  0
 29 30  2  0
 29 65  1  0
 30 66  1  0
 32 67  1  0
 33 68  1  0
M  END
$$$$

     RDKit          2D

 39 42  0  0  1  0  0  0  0  0999 V2000
   -6.0379   -0.1355    0.0000 C   0  0  0  0  0  0  0  0  0  0  0  0
   -4.5915    0.2622    0.0000 N   0  0  0  0  0  0  0  0  0  0  0  0
   -3.5239   -0.7914    0.0000 C   0  0  0  0  0  0  0  0  0  0  0  0
   -3.9027   -2.2428    0.0000 N   0  0  0  0  0  0  0  0  0  0  0  0
   -2.8351   -3.2965    0.0000 C   0  0  0  0  0  0  0  0  0  0  0  0
   -1.3887   -2.8988    0.0000 N   0  0  0  0  0  0  0  0  0  0  0  0
   -1.0100   -1.4474    0.0000 C   0  0  0  0  0  0  0  0  0  0  0  0
   -2.0776   -0.3937    0.0000 C   0  0  0  0  0  0  0  0  0  0  0  0
   -1.6989    1.0577    0.0000 C   0  0  0  0  0  0  0  0  0  0  0  0
   -0.2005    0.9890    0.0000 C   0  0  0  0  0  0  0  0  0  0  0  0
    0.1972   -0.4573    0.0000 N   0  0  0  0  0  0  0  0  0  0  0  0
    1.6011   -0.9856    0.0000 C   0  0  0  0  0  0  0  0  0  0  0  0
    2.8644   -1.7943    0.0000 C   0  0  0  0  0  0  0  0  0  0  0  0
    4.0239   -0.8427    0.0000 C   0  0  0  0  0  0  0  0  0  0  0  0
    3.4772    0.5541    0.0000 C   0  0  0  0  0  0  0  0  0  0  0  0
    1.9798    0.4658    0.0000 O   0  0  0  0  0  0  0  0  0  0  0  0
    3.2328    2.0341    0.0000 C   0  0  0  0  0  0  0  0  0  0  0  0
    2.9885    3.5140    0.0000 O   0  0  0  0  0  0  0  0  0  0  0  0
    5.3559   -0.1530    0.0000 O   0  0  0  0  0  0  0  0  0  0  0  0
    3.9320   -2.8480    0.0000 O   0  0  0  0  0  0  0  0  0  0  0  0
   -2.7665    2.1114    0.0000 C   0  0  0  0  0  0  0  0  0  0  0  0
   -4.2128    1.7136    0.0000 N   0  0  0  0  0  0  0  0  0  0  0  0
   -2.3878    3.5628    0.0000 N   0  0  0  0  0  0  0  0  0  0  0  0
   -6.4356    1.3108    0.0000 H   0  0  0  0  0  0  0  0  0  0  0  0
   -5.6401   -1.5818    0.0000 H   0  0  0  0  0  0  0  0  0  0  0  0
   -7.4842   -0.5332    0.0000 H   0  0  0  0  0  0  0  0  0  0  0  0
   -3.2138   -4.7479    0.0000 H   0  0  0  0  0  0  0  0  0  0  0  0
    0.7358    2.1609    0.0000 H   0  0  0  0  0  0  0  0  0  0  0  0
    0.9289   -2.3266    0.0000 H   0  0  0  0  0  0  0  0  0  0  0  0
    1.9281   -2.9662    0.0000 H   0  0  0  0  0  0  0  0  0  0  0  0
    4.8491   -2.0953    0.0000 H   0  0  0  0  0  0  0  0  0  0  0  0
    4.9235    0.9518    0.0000 H   0  0  0  0  0  0  0  0  0  0  0  0
    1.7529    1.7897    0.0000 H   0  0  0  0  0  0  0  0  0  0  0  0
    4.7128    2.2784    0.0000 H   0  0  0  0  0  0  0  0  0  0  0  0
    4.1480    4.4656    0.0000 H   0  0  0  0  0  0  0  0  0  0  0  0
    6.6193   -0.9616    0.0000 H   0  0  0  0  0  0  0  0  0  0  0  0
    3.5533   -4.2994    0.0000 H   0  0  0  0  0  0  0  0  0  0  0  0
   -3.4554    4.6165    0.0000 H   0  0  0  0  0  0  0  0  0  0  0  0
   -0.9415    3.9605    0.0000 H   0  0  0  0  0  0  0  0  0  0  0  0
  1  2  1  0
  1 24  1  0
  1 25  1  0
  1 26  1  0
  2  3  1  0
  2 22  1  0
  3  4  1  0
  3  8  2  0
  4  5  2  0
  5  6  1  0
  5 27  1  0
  6  7  2  0
  7  8  1  0
  7 11  1  0
  8  9  1  0
  9 10  2  0
  9 21  1  0
 10 11  1  0
 10 28  1  0
 11 12  1  0
 12 13  1  0
 12 16  1  0
 12 29  1  1
 13 14  1  0
 13 20  1  0
 13 30  1  6
 14 15  1  0
 14 19  1  0
 14 31  1  6
 15 16  1  0
 15 32  1  1
 15 17  1  0
 17 18  1  0
 17 33  1  0
 17 34  1  0
 18 35  1  0
 19 36  1  0
 20 37  1  0
 21 22  2  0
 21 23  1  0
 23 38  1  0
 23 39  1  0
M  END
$$$$

     RDKit          2D

 86 89  0  0  0  0  0  0  0  0999 V2000
    7.9671   -2.2371    0.0000 C   0  0  0  0  0  0  0  0  0  0  0  0
    6.5149   -1.8613    0.0000 C   0  0  0  0  0  0  0  0  0  0  0  0
    6.1142   -0.4158    0.0000 C   0  0  0  0  0  0  0  0  0  0  0  0
    4.6621   -0.0401    0.0000 C   0  0  0  0  0  0  0  0  0  0  0  0
    3.6106   -1.1098    0.0000 C   0  0  0  0  0  0  0  0  0  0  0  0
    4.0112   -2.5553    0.0000 C   0  0  0  0  0  0  0  0  0  0  0  0
    5.4634   -2.9311    0.0000 N   0  0  0  0  0  0  0  0  0  0  0  0
    2.9597   -3.6251    0.0000 C   0  0  0  0  0  0  0  0  0  0  0  0
    2.1584   -0.7341    0.0000 C   0  0  0  0  0  0  0  0  0  0  0  0
    1.1069   -1.8038    0.0000 O   0  0  0  0  0  0  0  0  0  0  0  0
    1.7577    0.7114    0.0000 O   0  0  0  0  0  0  0  0  0  0  0  0
    0.3055    1.0872    0.0000 C   0  0  0  0  0  0  0  0  0  0  0  0
    0.6813    2.5393    0.0000 C   0  0  0  0  0  0  0  0  0  0  0  0
   -0.0702   -0.3650    0.0000 C   0  0  0  0  0  0  0  0  0  0  0  0
   -1.1466    1.4629    0.0000 C   0  0  0  0  0  0  0  0  0  0  0  0
   -2.5988    1.8387    0.0000 N   0  0  0  0  0  0  0  0  0  0  0  0
   -2.9995    3.2842    0.0000 C   0  0  0  0  0  0  0  0  0  0  0  0
   -3.6503    0.7689    0.0000 C   0  0  0  0  0  0  0  0  0  0  0  0
   -4.7018   -0.3008    0.0000 C   0  0  0  0  0  0  0  0  0  0  0  0
   -5.7533   -1.3706    0.0000 C   0  0  0  0  0  0  0  0  0  0  0  0
   -6.8231   -0.3191    0.0000 C   0  0  0  0  0  0  0  0  0  0  0  0
   -6.4473    1.1331    0.0000 C   0  0  0  0  0  0  0  0  0  0  0  0
   -7.5171    2.1846    0.0000 C   0  0  0  0  0  0  0  0  0  0  0  0
   -8.9625    1.7839    0.0000 C   0  0  0  0  0  0  0  0  0  0  0  0
   -9.3383    0.3317    0.0000 C   0  0  0  0  0  0  0  0  0  0  0  0
   -8.2685   -0.7198    0.0000 C   0  0  0  0  0  0  0  0  0  0  0  0
   -4.6836   -2.4221    0.0000 C   0  0  0  0  0  0  0  0  0  0  0  0
   -5.0593   -3.8742    0.0000 C   0  0  0  0  0  0  0  0  0  0  0  0
   -3.9896   -4.9257    0.0000 C   0  0  0  0  0  0  0  0  0  0  0  0
   -2.5441   -4.5251    0.0000 C   0  0  0  0  0  0  0  0  0  0  0  0
   -2.1683   -3.0729    0.0000 C   0  0  0  0  0  0  0  0  0  0  0  0
   -3.2381   -2.0214    0.0000 C   0  0  0  0  0  0  0  0  0  0  0  0
    3.4260    0.8097    0.0000 C   0  0  0  0  0  0  0  0  0  0  0  0
    3.5438    2.3050    0.0000 C   0  0  0  0  0  0  0  0  0  0  0  0
    2.3078    3.1548    0.0000 C   0  0  0  0  0  0  0  0  0  0  0  0
    0.9538    2.5092    0.0000 C   0  0  0  0  0  0  0  0  0  0  0  0
    0.8359    1.0138    0.0000 C   0  0  0  0  0  0  0  0  0  0  0  0
    2.0720    0.1641    0.0000 C   0  0  0  0  0  0  0  0  0  0  0  0
    2.4256    4.6502    0.0000 N   0  0  0  0  0  0  0  0  0  0  0  0
    3.7796    5.2958    0.0000 O   0  0  0  0  0  0  0  0  0  0  0  0
    1.1895    5.4999    0.0000 O   0  0  0  0  0  0  0  0  0  0  0  0
    7.1657    0.6539    0.0000 C   0  0  0  0  0  0  0  0  0  0  0  0
    6.7650    2.0994    0.0000 O   0  0  0  0  0  0  0  0  0  0  0  0
    8.6179    0.2782    0.0000 O   0  0  0  0  0  0  0  0  0  0  0  0
    9.6694    1.3479    0.0000 C   0  0  0  0  0  0  0  0  0  0  0  0
    7.5913   -3.6893    0.0000 H   0  0  0  0  0  0  0  0  0  0  0  0
    8.3428   -0.7849    0.0000 H   0  0  0  0  0  0  0  0  0  0  0  0
    9.4193   -2.6128    0.0000 H   0  0  0  0  0  0  0  0  0  0  0  0
    5.2843    1.3248    0.0000 H   0  0  0  0  0  0  0  0  0  0  0  0
    5.8641   -4.3766    0.0000 H   0  0  0  0  0  0  0  0  0  0  0  0
    4.0295   -4.6766    0.0000 H   0  0  0  0  0  0  0  0  0  0  0  0
    1.8900   -2.5736    0.0000 H   0  0  0  0  0  0  0  0  0  0  0  0
    1.9082   -4.6948    0.0000 H   0  0  0  0  0  0  0  0  0  0  0  0
   -0.7709    2.9151    0.0000 H   0  0  0  0  0  0  0  0  0  0  0  0
    2.1335    2.1636    0.0000 H   0  0  0  0  0  0  0  0  0  0  0  0
    1.0570    3.9915    0.0000 H   0  0  0  0  0  0  0  0  0  0  0  0
   -1.5574   -0.1691    0.0000 H   0  0  0  0  0  0  0  0  0  0  0  0
    1.1508   -1.2363    0.0000 H   0  0  0  0  0  0  0  0  0  0  0  0
   -0.2662   -1.8522    0.0000 H   0  0  0  0  0  0  0  0  0  0  0  0
   -1.6966    0.0674    0.0000 H   0  0  0  0  0  0  0  0  0  0  0  0
   -1.1335    2.9629    0.0000 H   0  0  0  0  0  0  0  0  0  0  0  0
   -4.4450    2.8835    0.0000 H   0  0  0  0  0  0  0  0  0  0  0  0
   -1.5540    3.6848    0.0000 H   0  0  0  0  0  0  0  0  0  0  0  0
   -3.4002    4.7297    0.0000 H   0  0  0  0  0  0  0  0  0  0  0  0
   -4.5839    1.9430    0.0000 H   0  0  0  0  0  0  0  0  0  0  0  0
   -2.4604   -0.1443    0.0000 H   0  0  0  0  0  0  0  0  0  0  0  0
   -5.4853    0.9783    0.0000 H   0  0  0  0  0  0  0  0  0  0  0  0
   -3.4094   -1.0622    0.0000 H   0  0  0  0  0  0  0  0  0  0  0  0
   -6.8048   -2.4403    0.0000 H   0  0  0  0  0  0  0  0  0  0  0  0
   -5.0614    1.7070    0.0000 H   0  0  0  0  0  0  0  0  0  0  0  0
   -7.1413    3.6368    0.0000 H   0  0  0  0  0  0  0  0  0  0  0  0
  -10.0323    2.8354    0.0000 H   0  0  0  0  0  0  0  0  0  0  0  0
  -10.7838   -0.0689    0.0000 H   0  0  0  0  0  0  0  0  0  0  0  0
   -8.6443   -2.1719    0.0000 H   0  0  0  0  0  0  0  0  0  0  0  0
   -6.5048   -4.2749    0.0000 H   0  0  0  0  0  0  0  0  0  0  0  0
   -4.3653   -6.3779    0.0000 H   0  0  0  0  0  0  0  0  0  0  0  0
   -1.4743   -5.5766    0.0000 H   0  0  0  0  0  0  0  0  0  0  0  0
   -0.6848   -2.8514    0.0000 H   0  0  0  0  0  0  0  0  0  0  0  0
   -2.6881   -0.6258    0.0000 H   0  0  0  0  0  0  0  0  0  0  0  0
    4.8978    2.9506    0.0000 H   0  0  0  0  0  0  0  0  0  0  0  0
   -0.0399    3.6328    0.0000 H   0  0  0  0  0  0  0  0  0  0  0  0
   -0.5180    0.3682    0.0000 H   0  0  0  0  0  0  0  0  0  0  0  0
    1.7727   -1.3058    0.0000 H   0  0  0  0  0  0  0  0  0  0  0  0
   10.7391    0.2964    0.0000 H   0  0  0  0  0  0  0  0  0  0  0  0
    8.5997    2.3994    0.0000 H   0  0  0  0  0  0  0  0  0  0  0  0
   10.7209    2.4177    0.0000 H   0  0  0  0  0  0  0  0  0  0  0  0
  1  2  1  0
  1 46  1  0
  1 47  1  0
  1 48  1  0
  2  3  2  0
  2  7  1  0
  3  4  1  0
  3 42  1  0
  4  5  1  0
  4 33  1  0
  4 49  1  6
  5  6  2  0
  5  9  1  0
  6  7  1  0
  6  8  1  0
  7 50  1  0
  8 51  1  0
  8 52  1  0
  8 53  1  0
  9 10  2  0
  9 11  1  0
 11 12  1  0
 12 13  1  0
 12 14  1  0
 12 15  1  0
 13 54  1  0
 13 55  1  0
 13 56  1  0
 14 57  1  0
 14 58  1  0
 14 59  1  0
 15 16  1  0
 15 60  1  0
 15 61  1  0
 16 17  1  0
 16 18  1  0
 17 62  1  0
 17 63  1  0
 17 64  1  0
 18 19  1  0
 18 65  1  0
 18 66  1  0
 19 20  1  0
 19 67  1  0
 19 68  1  0
 20 21  1  0
 20 27  1  0
 20 69  1  0
 21 22  2  0
 21 26  1  0
 22 23  1  0
 22 70  1  0
 23 24  2  0
 23 71  1  0
 24 25  1  0
 24 72  1  0
 25 26  2  0
 25 73  1  0
 26 74  1  0
 27 28  2  0
 27 32  1  0
 28 29  1  0
 28 75  1  0
 29 30  2  0
 29 76  1  0
 30 31  1  0
 30 77  1  0
 31 32  2  0
 31 78  1  0
 32 79  1  0
 33 34  2  0
 33 38  1  0
 34 35  1  0
 34 80  1  0
 35 36  2  0
 35 39  1  0
 36 37  1  0
 36 81  1  0
 37 38  2  0
 37 82  1  0
 38 83  1  0
 39 40  2  0
 39 41  1  0
 42 43  2  0
 42 44  1  0
 44 45  1  0
 45 84  1  0
 45 85  1  0
 45 86  1  0
M  CHG  2  39   1  41  -1
M  END
$$$$

     RDKit          2D

 44 48  0  0  1  0  0  0  0  0999 V2000
   -0.9592    3.3609    0.0000 C   0  0  0  0  0  0  0  0  0  0  0  0
   -1.4502    1.9435    0.0000 C   0  0  0  0  0  0  0  0  0  0  0  0
   -1.9412    0.5261    0.0000 C   0  0  0  0  0  0  0  0  0  0  0  0
   -3.4141    0.2426    0.0000 C   0  0  0  0  0  0  0  0  0  0  0  0
   -3.9051   -1.1747    0.0000 C   0  0  0  0  0  0  0  0  0  0  0  0
   -2.9231   -2.3086    0.0000 C   0  0  0  0  0  0  0  0  0  0  0  0
   -1.4502   -2.0251    0.0000 N   0  0  0  0  0  0  0  0  0  0  0  0
   -0.9592   -0.6078    0.0000 C   0  0  0  0  0  0  0  0  0  0  0  0
    0.5138   -0.3243    0.0000 C   0  0  0  0  0  0  0  0  0  0  0  0
    1.4958   -1.4582    0.0000 C   0  0  0  0  0  0  0  0  0  0  0  0
    1.0048   -2.8755    0.0000 C   0  0  0  0  0  0  0  0  0  0  0  0
   -0.4682   -3.1590    0.0000 C   0  0  0  0  0  0  0  0  0  0  0  0
    2.8776   -0.8746    0.0000 C   0  0  0  0  0  0  0  0  0  0  0  0
    4.2359   -1.5111    0.0000 C   0  0  0  0  0  0  0  0  0  0  0  0
    5.4662   -0.6530    0.0000 C   0  0  0  0  0  0  0  0  0  0  0  0
    5.3383    0.8416    0.0000 C   0  0  0  0  0  0  0  0  0  0  0  0
    3.9800    1.4780    0.0000 C   0  0  0  0  0  0  0  0  0  0  0  0
    2.7496    0.6199    0.0000 C   0  0  0  0  0  0  0  0  0  0  0  0
    1.2887    0.9600    0.0000 N   0  0  0  0  0  0  0  0  0  0  0  0
    0.1158    2.1132    0.0000 C   0  0  0  0  0  0  0  0  0  0  0  0
    0.8510    3.4206    0.0000 O   0  0  0  0  0  0  0  0  0  0  0  0
   -1.3708    1.9135    0.0000 C   0  0  0  0  0  0  0  0  0  0  0  0
   -2.3766    3.8519    0.0000 H   0  0  0  0  0  0  0  0  0  0  0  0
    0.5074    3.0463    0.0000 H   0  0  0  0  0  0  0  0  0  0  0  0
   -0.4682    4.7782    0.0000 H   0  0  0  0  0  0  0  0  0  0  0  0
   -2.7066    2.7629    0.0000 H   0  0  0  0  0  0  0  0  0  0  0  0
    0.0490    1.9932    0.0000 H   0  0  0  0  0  0  0  0  0  0  0  0
   -4.8952    0.4800    0.0000 H   0  0  0  0  0  0  0  0  0  0  0  0
   -3.7998    1.6922    0.0000 H   0  0  0  0  0  0  0  0  0  0  0  0
   -4.8513   -2.3387    0.0000 H   0  0  0  0  0  0  0  0  0  0  0  0
   -5.2157   -0.4451    0.0000 H   0  0  0  0  0  0  0  0  0  0  0  0
   -2.5630   -3.7647    0.0000 H   0  0  0  0  0  0  0  0  0  0  0  0
   -4.2103   -3.0788    0.0000 H   0  0  0  0  0  0  0  0  0  0  0  0
   -0.2991    0.7392    0.0000 H   0  0  0  0  0  0  0  0  0  0  0  0
    1.0282   -4.3753    0.0000 H   0  0  0  0  0  0  0  0  0  0  0  0
    2.4859   -3.1129    0.0000 H   0  0  0  0  0  0  0  0  0  0  0  0
   -1.6519   -4.0803    0.0000 H   0  0  0  0  0  0  0  0  0  0  0  0
    0.0668   -4.5604    0.0000 H   0  0  0  0  0  0  0  0  0  0  0  0
    4.3639   -3.0056    0.0000 H   0  0  0  0  0  0  0  0  0  0  0  0
    6.8245   -1.2894    0.0000 H   0  0  0  0  0  0  0  0  0  0  0  0
    6.5686    1.6996    0.0000 H   0  0  0  0  0  0  0  0  0  0  0  0
    3.8520    2.9725    0.0000 H   0  0  0  0  0  0  0  0  0  0  0  0
   -2.8361    2.2342    0.0000 H   0  0  0  0  0  0  0  0  0  0  0  0
   -0.9485    3.3528    0.0000 H   0  0  0  0  0  0  0  0  0  0  0  0
  1  2  1  0
  1 23  1  0
  1 24  1  0
  1 25  1  0
  2 26  1  0
  2 27  1  0
  3  2  1  6
  3  4  1  0
  3  8  1  0
  3 22  1  0
  4  5  1  0
  4 28  1  0
  4 29  1  0
  5  6  1  0
  5 30  1  0
  5 31  1  0
  6  7  1  0
  6 32  1  0
  6 33  1  0
  7  8  1  0
  7 12  1  0
  8  9  1  0
  8 34  1  6
  9 10  2  0
  9 19  1  0
 10 11  1  0
 10 13  1  0
 11 12  1  0
 11 35  1  0
 11 36  1  0
 12 37  1  0
 12 38  1  0
 13 14  1  0
 13 18  2  0
 14 15  2  0
 14 39  1  0
 15 16  1  0
 15 40  1  0
 16 17  2  0
 16 41  1  0
 17 18  1  0
 17 42  1  0
 18 19  1  0
 19 20  1  0
 20 21  2  0
 20 22  1  0
 22 43  1  0
 22 44  1  0
M  END
$$$$

     RDKit          2D

 22 23  0  0  0  0  0  0  0  0999 V2000
    3.6605   -1.0587    0.0000 C   0  0  0  0  0  0  0  0  0  0  0  0
    2.1922   -1.3654    0.0000 C   0  0  0  0  0  0  0  0  0  0  0  0
    1.1925   -0.2470    0.0000 C   0  0  0  0  0  0  0  0  0  0  0  0
    1.6611    1.1779    0.0000 C   0  0  0  0  0  0  0  0  0  0  0  0
    3.1294    1.4845    0.0000 C   0  0  0  0  0  0  0  0  0  0  0  0
    4.1291    0.3662    0.0000 C   0  0  0  0  0  0  0  0  0  0  0  0
    5.5975    0.6728    0.0000 Cl  0  0  0  0  0  0  0  0  0  0  0  0
    0.6614    2.2962    0.0000 Cl  0  0  0  0  0  0  0  0  0  0  0  0
   -0.2758   -0.5537    0.0000 C   0  0  0  0  0  0  0  0  0  0  0  0
   -1.2755    0.5646    0.0000 C   0  0  0  0  0  0  0  0  0  0  0  0
   -2.7439    0.2580    0.0000 N   0  0  0  0  0  0  0  0  0  0  0  0
   -3.3589   -1.1101    0.0000 C   0  0  0  0  0  0  0  0  0  0  0  0
   -4.8501   -0.9480    0.0000 N   0  0  0  0  0  0  0  0  0  0  0  0
   -5.1567    0.5204    0.0000 C   0  0  0  0  0  0  0  0  0  0  0  0
   -3.8550    1.2657    0.0000 N   0  0  0  0  0  0  0  0  0  0  0  0
   -0.7445   -1.9786    0.0000 Cl  0  0  0  0  0  0  0  0  0  0  0  0
    4.6602   -2.1770    0.0000 H   0  0  0  0  0  0  0  0  0  0  0  0
    1.7236   -2.7903    0.0000 H   0  0  0  0  0  0  0  0  0  0  0  0
    3.5981    2.9094    0.0000 H   0  0  0  0  0  0  0  0  0  0  0  0
   -0.8069    1.9896    0.0000 H   0  0  0  0  0  0  0  0  0  0  0  0
   -2.6135   -2.4118    0.0000 H   0  0  0  0  0  0  0  0  0  0  0  0
   -6.5248    1.1354    0.0000 H   0  0  0  0  0  0  0  0  0  0  0  0
  1  2  2  0
  1  6  1  0
  1 17  1  0
  2  3  1  0
  2 18  1  0
  3  4  2  0
  3  9  1  0
  4  5  1  0
  4  8  1  0
  5  6  2  0
  5 19  1  0
  6  7  1  0
  9 10  2  0
  9 16  1  0
 10 11  1  0
 10 20  1  0
 11 12  1  0
 11 15  1  0
 12 13  2  0
 12 21  1  0
 13 14  1  0
 14 15  2  0
 14 22  1  0
M  END
$$$$

     RDKit          2D

 30 32  0  0  0  0  0  0  0  0999 V2000
    0.0079   -2.2538    0.0000 C   0  0  0  0  0  0  0  0  0  0  0  0
    1.0797   -1.2044    0.0000 C   0  0  0  0  0  0  0  0  0  0  0  0
    0.4128    0.1392    0.0000 S   0  0  0  0  0  0  0  0  0  0  0  0
   -1.0711   -0.0798    0.0000 C   0  0  0  0  0  0  0  0  0  0  0  0
   -2.1206    0.9919    0.0000 C   0  0  0  0  0  0  0  0  0  0  0  0
   -1.7171    2.4367    0.0000 C   0  0  0  0  0  0  0  0  0  0  0  0
   -1.3136    3.8814    0.0000 N   0  0  0  0  0  0  0  0  0  0  0  0
   -3.5734    0.6190    0.0000 N   0  0  0  0  0  0  0  0  0  0  0  0
   -4.1257   -0.7756    0.0000 C   0  0  0  0  0  0  0  0  0  0  0  0
   -5.6228   -0.6814    0.0000 C   0  0  0  0  0  0  0  0  0  0  0  0
   -5.9957    0.7715    0.0000 N   0  0  0  0  0  0  0  0  0  0  0  0
   -4.7292    1.5752    0.0000 C   0  0  0  0  0  0  0  0  0  0  0  0
   -1.3214   -1.5588    0.0000 S   0  0  0  0  0  0  0  0  0  0  0  0
    2.3462   -0.4007    0.0000 C   0  0  0  0  0  0  0  0  0  0  0  0
    3.6755   -1.0958    0.0000 C   0  0  0  0  0  0  0  0  0  0  0  0
    4.9420   -0.2921    0.0000 C   0  0  0  0  0  0  0  0  0  0  0  0
    4.8793    1.2066    0.0000 C   0  0  0  0  0  0  0  0  0  0  0  0
    3.5500    1.9016    0.0000 C   0  0  0  0  0  0  0  0  0  0  0  0
    2.2835    1.0979    0.0000 C   0  0  0  0  0  0  0  0  0  0  0  0
    0.9542    1.7930    0.0000 Cl  0  0  0  0  0  0  0  0  0  0  0  0
    1.1636   -3.2100    0.0000 H   0  0  0  0  0  0  0  0  0  0  0  0
   -0.8223   -3.5032    0.0000 H   0  0  0  0  0  0  0  0  0  0  0  0
    2.0113   -2.3800    0.0000 H   0  0  0  0  0  0  0  0  0  0  0  0
   -3.3221   -2.0422    0.0000 H   0  0  0  0  0  0  0  0  0  0  0  0
   -6.5790   -1.8371    0.0000 H   0  0  0  0  0  0  0  0  0  0  0  0
   -4.6349    3.0722    0.0000 H   0  0  0  0  0  0  0  0  0  0  0  0
    3.7382   -2.5945    0.0000 H   0  0  0  0  0  0  0  0  0  0  0  0
    6.2713   -0.9871    0.0000 H   0  0  0  0  0  0  0  0  0  0  0  0
    6.1458    2.0102    0.0000 H   0  0  0  0  0  0  0  0  0  0  0  0
    3.4873    3.4003    0.0000 H   0  0  0  0  0  0  0  0  0  0  0  0
  1  2  1  0
  1 13  1  0
  1 21  1  0
  1 22  1  0
  2  3  1  0
  2 14  1  0
  2 23  1  6
  3  4  1  0
  4  5  2  0
  4 13  1  0
  5  6  1  0
  5  8  1  0
  6  7  3  0
  8  9  1  0
  8 12  1  0
  9 10  2  0
  9 24  1  0
 10 11  1  0
 10 25  1  0
 11 12  2  0
 12 26  1  0
 14 15  2  0
 14 19  1  0
 15 16  1  0
 15 27  1  0
 16 17  2  0
 16 28  1  0
 17 18  1  0
 17 29  1  0
 18 19  2  0
 18 30  1  0
 19 20  1  0
M  END
$$$$

     RDKit          2D

 54 57  0  0  0  0  0  0  0  0999 V2000
   -0.2295    4.0380    0.0000 C   0  0  0  0  0  0  0  0  0  0  0  0
   -0.4639    2.5565    0.0000 C   0  0  0  0  0  0  0  0  0  0  0  0
   -0.6983    1.0749    0.0000 C   0  0  0  0  0  0  0  0  0  0  0  0
   -2.0347    0.3937    0.0000 C   0  0  0  0  0  0  0  0  0  0  0  0
   -1.7998   -1.0878    0.0000 N   0  0  0  0  0  0  0  0  0  0  0  0
   -0.3182   -1.3222    0.0000 N   0  0  0  0  0  0  0  0  0  0  0  0
    0.3625    0.0144    0.0000 C   0  0  0  0  0  0  0  0  0  0  0  0
    1.8440    0.2493    0.0000 C   0  0  0  0  0  0  0  0  0  0  0  0
    2.3813    1.6498    0.0000 O   0  0  0  0  0  0  0  0  0  0  0  0
    2.7882   -0.9162    0.0000 N   0  0  0  0  0  0  0  0  0  0  0  0
    4.2697   -0.6813    0.0000 N   0  0  0  0  0  0  0  0  0  0  0  0
    4.8070    0.7191    0.0000 C   0  0  0  0  0  0  0  0  0  0  0  0
    6.2885    0.9541    0.0000 C   0  0  0  0  0  0  0  0  0  0  0  0
    7.2327   -0.2115    0.0000 C   0  0  0  0  0  0  0  0  0  0  0  0
    6.6954   -1.6120    0.0000 C   0  0  0  0  0  0  0  0  0  0  0  0
    5.2139   -1.8469    0.0000 C   0  0  0  0  0  0  0  0  0  0  0  0
   -2.8603   -2.1487    0.0000 C   0  0  0  0  0  0  0  0  0  0  0  0
   -4.3092   -1.7607    0.0000 C   0  0  0  0  0  0  0  0  0  0  0  0
   -5.3697   -2.8215    0.0000 C   0  0  0  0  0  0  0  0  0  0  0  0
   -4.9812   -4.2703    0.0000 C   0  0  0  0  0  0  0  0  0  0  0  0
   -3.5323   -4.6583    0.0000 C   0  0  0  0  0  0  0  0  0  0  0  0
   -2.4718   -3.5975    0.0000 C   0  0  0  0  0  0  0  0  0  0  0  0
   -6.0417   -5.3312    0.0000 Cl  0  0  0  0  0  0  0  0  0  0  0  0
   -4.6959   -1.0636    0.0000 Cl  0  0  0  0  0  0  0  0  0  0  0  0
   -3.3713    1.0744    0.0000 C   0  0  0  0  0  0  0  0  0  0  0  0
   -3.4501    2.5724    0.0000 C   0  0  0  0  0  0  0  0  0  0  0  0
   -4.7867    3.2531    0.0000 C   0  0  0  0  0  0  0  0  0  0  0  0
   -6.0446    2.4359    0.0000 C   0  0  0  0  0  0  0  0  0  0  0  0
   -5.9658    0.9380    0.0000 C   0  0  0  0  0  0  0  0  0  0  0  0
   -4.6292    0.2573    0.0000 C   0  0  0  0  0  0  0  0  0  0  0  0
   -7.3812    3.1167    0.0000 Br  0  0  0  0  0  0  0  0  0  0  0  0
   -1.7111    4.2724    0.0000 H   0  0  0  0  0  0  0  0  0  0  0  0
    1.2521    3.8036    0.0000 H   0  0  0  0  0  0  0  0  0  0  0  0
    0.0049    5.5196    0.0000 H   0  0  0  0  0  0  0  0  0  0  0  0
   -1.6319    2.8912    0.0000 H   0  0  0  0  0  0  0  0  0  0  0  0
    1.0177    2.3221    0.0000 H   0  0  0  0  0  0  0  0  0  0  0  0
    2.2509   -2.3167    0.0000 H   0  0  0  0  0  0  0  0  0  0  0  0
    4.8329    2.2189    0.0000 H   0  0  0  0  0  0  0  0  0  0  0  0
    3.3345    1.0051    0.0000 H   0  0  0  0  0  0  0  0  0  0  0  0
    7.6003    1.6815    0.0000 H   0  0  0  0  0  0  0  0  0  0  0  0
    5.7999    2.3722    0.0000 H   0  0  0  0  0  0  0  0  0  0  0  0
    8.5186   -0.9838    0.0000 H   0  0  0  0  0  0  0  0  0  0  0  0
    8.2166    0.9207    0.0000 H   0  0  0  0  0  0  0  0  0  0  0  0
    6.6695   -3.1117    0.0000 H   0  0  0  0  0  0  0  0  0  0  0  0
    8.1679   -1.8979    0.0000 H   0  0  0  0  0  0  0  0  0  0  0  0
    3.9021   -2.5743    0.0000 H   0  0  0  0  0  0  0  0  0  0  0  0
    5.7025   -3.2651    0.0000 H   0  0  0  0  0  0  0  0  0  0  0  0
   -6.8187   -2.4335    0.0000 H   0  0  0  0  0  0  0  0  0  0  0  0
   -3.1438   -6.1071    0.0000 H   0  0  0  0  0  0  0  0  0  0  0  0
   -1.0228   -3.9855    0.0000 H   0  0  0  0  0  0  0  0  0  0  0  0
   -2.5195    3.3535    0.0000 H   0  0  0  0  0  0  0  0  0  0  0  0
   -4.8655    4.7510    0.0000 H   0  0  0  0  0  0  0  0  0  0  0  0
   -7.2237    0.1208    0.0000 H   0  0  0  0  0  0  0  0  0  0  0  0
   -4.7812   -0.5253    0.0000 H   0  0  0  0  0  0  0  0  0  0  0  0
  1  2  1  0
  1 32  1  0
  1 33  1  0
  1 34  1  0
  2  3  1  0
  2 35  1  0
  2 36  1  0
  3  4  2  0
  3  7  1  0
  4  5  1  0
  4 25  1  0
  5  6  1  0
  5 17  1  0
  6  7  2  0
  7  8  1  0
  8  9  2  0
  8 10  1  0
 10 11  1  0
 10 37  1  0
 11 12  1  0
 11 16  1  0
 12 13  1  0
 12 38  1  0
 12 39  1  0
 13 14  1  0
 13 40  1  0
 13 41  1  0
 14 15  1  0
 14 42  1  0
 14 43  1  0
 15 16  1  0
 15 44  1  0
 15 45  1  0
 16 46  1  0
 16 47  1  0
 17 18  2  0
 17 22  1  0
 18 19  1  0
 18 24  1  0
 19 20  2  0
 19 48  1  0
 20 21  1  0
 20 23  1  0
 21 22  2  0
 21 49  1  0
 22 50  1  0
 25 26  2  0
 25 30  1  0
 26 27  1  0
 26 51  1  0
 27 28  2  0
 27 52  1  0
 28 29  1  0
 28 31  1  0
 29 30  2  0
 29 53  1  0
 30 54  1  0
M  END
$$$$

     RDKit          2D

 53 57  0  0  1  0  0  0  0  0999 V2000
    4.1424   -0.0004    0.0000 C   0  0  0  0  0  0  0  0  0  0  0  0
    2.6472    0.1193    0.0000 C   0  0  0  0  0  0  0  0  0  0  0  0
    3.4984    1.3543    0.0000 C   0  0  0  0  0  0  0  0  0  0  0  0
    4.9937    1.2346    0.0000 C   0  0  0  0  0  0  0  0  0  0  0  0
    5.6376   -0.1201    0.0000 C   0  0  0  0  0  0  0  0  0  0  0  0
    7.1328   -0.2398    0.0000 O   0  0  0  0  0  0  0  0  0  0  0  0
    4.7863   -1.3552    0.0000 C   0  0  0  0  0  0  0  0  0  0  0  0
    3.2911   -1.2355    0.0000 C   0  0  0  0  0  0  0  0  0  0  0  0
    2.4398   -2.4705    0.0000 C   0  0  0  0  0  0  0  0  0  0  0  0
    0.9446   -2.3508    0.0000 C   0  0  0  0  0  0  0  0  0  0  0  0
    0.3007   -0.9960    0.0000 C   0  0  0  0  0  0  0  0  0  0  0  0
    1.1520    0.2390    0.0000 C   0  0  0  0  0  0  0  0  0  0  0  0
    0.5080    1.5937    0.0000 C   0  0  0  0  0  0  0  0  0  0  0  0
   -0.9872    1.7134    0.0000 C   0  0  0  0  0  0  0  0  0  0  0  0
   -1.8385    0.4784    0.0000 C   0  0  0  0  0  0  0  0  0  0  0  0
   -1.1945   -0.8763    0.0000 C   0  0  0  0  0  0  0  0  0  0  0  0
   -2.2840   -1.9074    0.0000 C   0  0  0  0  0  0  0  0  0  0  0  0
   -3.6013   -1.1899    0.0000 C   0  0  0  0  0  0  0  0  0  0  0  0
   -3.3259    0.2846    0.0000 C   0  0  0  0  0  0  0  0  0  0  0  0
   -4.8133    0.0908    0.0000 C   0  0  0  0  0  0  0  0  0  0  0  0
   -5.4573    1.4456    0.0000 C   0  0  0  0  0  0  0  0  0  0  0  0
   -4.3678    2.4767    0.0000 C   0  0  0  0  0  0  0  0  0  0  0  0
   -4.5616    3.9641    0.0000 O   0  0  0  0  0  0  0  0  0  0  0  0
   -3.0506    1.7591    0.0000 O   0  0  0  0  0  0  0  0  0  0  0  0
   -2.2664   -0.9592    0.0000 C   0  0  0  0  0  0  0  0  0  0  0  0
    4.4593   -0.7319    0.0000 H   0  0  0  0  0  0  0  0  0  0  0  0
    4.9502    1.2635    0.0000 H   0  0  0  0  0  0  0  0  0  0  0  0
    5.5642   -0.4784    0.0000 H   0  0  0  0  0  0  0  0  0  0  0  0
    3.8760    2.8060    0.0000 H   0  0  0  0  0  0  0  0  0  0  0  0
    2.3258    2.2897    0.0000 H   0  0  0  0  0  0  0  0  0  0  0  0
    6.4396    1.6335    0.0000 H   0  0  0  0  0  0  0  0  0  0  0  0
    4.8519    2.7279    0.0000 H   0  0  0  0  0  0  0  0  0  0  0  0
    5.4303   -2.7099    0.0000 H   0  0  0  0  0  0  0  0  0  0  0  0
    3.0838   -3.8253    0.0000 H   0  0  0  0  0  0  0  0  0  0  0  0
    0.0933   -3.5858    0.0000 H   0  0  0  0  0  0  0  0  0  0  0  0
   -0.2265   -2.4004    0.0000 H   0  0  0  0  0  0  0  0  0  0  0  0
    2.0032    1.4740    0.0000 H   0  0  0  0  0  0  0  0  0  0  0  0
    0.3663    3.0870    0.0000 H   0  0  0  0  0  0  0  0  0  0  0  0
    1.8145    2.3307    0.0000 H   0  0  0  0  0  0  0  0  0  0  0  0
   -2.1598    2.6489    0.0000 H   0  0  0  0  0  0  0  0  0  0  0  0
   -0.6097    3.1652    0.0000 H   0  0  0  0  0  0  0  0  0  0  0  0
   -0.4770    0.4409    0.0000 H   0  0  0  0  0  0  0  0  0  0  0  0
   -1.2721   -3.0147    0.0000 H   0  0  0  0  0  0  0  0  0  0  0  0
   -2.9784   -3.2370    0.0000 H   0  0  0  0  0  0  0  0  0  0  0  0
   -4.1771   -2.5749    0.0000 H   0  0  0  0  0  0  0  0  0  0  0  0
   -5.0804   -0.9404    0.0000 H   0  0  0  0  0  0  0  0  0  0  0  0
   -4.6456   -1.3997    0.0000 H   0  0  0  0  0  0  0  0  0  0  0  0
   -6.2280   -0.4080    0.0000 H   0  0  0  0  0  0  0  0  0  0  0  0
   -6.7373    0.6636    0.0000 H   0  0  0  0  0  0  0  0  0  0  0  0
   -6.3688    2.6369    0.0000 H   0  0  0  0  0  0  0  0  0  0  0  0
   -3.7649   -0.8919    0.0000 H   0  0  0  0  0  0  0  0  0  0  0  0
   -1.0777   -1.8741    0.0000 H   0  0  0  0  0  0  0  0  0  0  0  0
   -3.1813   -2.1480    0.0000 H   0  0  0  0  0  0  0  0  0  0  0  0
  1 26  1  0
  1 27  1  0
  1 28  1  0
  2  1  1  1
  2  3  1  0
  2  8  1  0
  2 12  1  0
  3  4  1  0
  3 29  1  0
  3 30  1  0
  4  5  1  0
  4 31  1  0
  4 32  1  0
  5  6  2  0
  5  7  1  0
  7  8  2  0
  7 33  1  0
  8  9  1  0
  9 10  2  0
  9 34  1  0
 10 11  1  0
 10 35  1  0
 11 12  1  0
 11 16  1  0
 11 36  1  6
 12 13  1  0
 12 37  1  1
 13 14  1  0
 13 38  1  0
 13 39  1  0
 14 15  1  0
 14 40  1  0
 14 41  1  0
 15 16  1  0
 15 19  1  0
 15 25  1  6
 16 17  1  0
 16 42  1  6
 17 18  1  0
 17 43  1  0
 17 44  1  0
 18 19  1  0
 18 45  1  0
 18 46  1  0
 19 20  1  0
 19 24  1  6
 20 21  1  0
 20 47  1  0
 20 48  1  0
 21 22  1  0
 21 49  1  0
 21 50  1  0
 22 23  2  0
 22 24  1  0
 25 51  1  0
 25 52  1  0
 25 53  1  0
M  END
$$$$

     RDKit          2D

 37 38  0  0  0  0  0  0  0  0999 V2000
    0.4371    1.7646    0.0000 C   0  0  0  0  0  0  0  0  0  0  0  0
   -0.7526    0.8510    0.0000 C   0  0  0  0  0  0  0  0  0  0  0  0
   -1.9423   -0.0626    0.0000 C   0  0  0  0  0  0  0  0  0  0  0  0
   -1.6662    2.0407    0.0000 C   0  0  0  0  0  0  0  0  0  0  0  0
    0.1610   -0.3387    0.0000 C   0  0  0  0  0  0  0  0  0  0  0  0
    1.6130    0.0375    0.0000 O   0  0  0  0  0  0  0  0  0  0  0  0
   -0.4126   -1.7247    0.0000 C   0  0  0  0  0  0  0  0  0  0  0  0
   -1.7986   -1.1512    0.0000 N   0  0  0  0  0  0  0  0  0  0  0  0
   -3.0773   -1.9354    0.0000 C   0  0  0  0  0  0  0  0  0  0  0  0
   -4.2182   -0.9617    0.0000 C   0  0  0  0  0  0  0  0  0  0  0  0
   -3.6447    0.4244    0.0000 N   0  0  0  0  0  0  0  0  0  0  0  0
   -2.1493    0.3072    0.0000 C   0  0  0  0  0  0  0  0  0  0  0  0
    0.9735   -2.2982    0.0000 O   0  0  0  0  0  0  0  0  0  0  0  0
    2.1632   -1.3846    0.0000 C   0  0  0  0  0  0  0  0  0  0  0  0
    3.5492   -1.9582    0.0000 C   0  0  0  0  0  0  0  0  0  0  0  0
    4.7389   -1.0446    0.0000 C   0  0  0  0  0  0  0  0  0  0  0  0
    4.5426    0.4425    0.0000 C   0  0  0  0  0  0  0  0  0  0  0  0
    3.1565    1.0160    0.0000 C   0  0  0  0  0  0  0  0  0  0  0  0
    1.9668    0.1024    0.0000 C   0  0  0  0  0  0  0  0  0  0  0  0
    5.7323    1.3561    0.0000 Cl  0  0  0  0  0  0  0  0  0  0  0  0
   -0.3247    3.0568    0.0000 H   0  0  0  0  0  0  0  0  0  0  0  0
    1.6114    0.8313    0.0000 H   0  0  0  0  0  0  0  0  0  0  0  0
    1.6268    2.6782    0.0000 H   0  0  0  0  0  0  0  0  0  0  0  0
   -2.9941    1.0069    0.0000 H   0  0  0  0  0  0  0  0  0  0  0  0
   -1.6944   -1.5419    0.0000 H   0  0  0  0  0  0  0  0  0  0  0  0
   -3.1320   -0.9761    0.0000 H   0  0  0  0  0  0  0  0  0  0  0  0
   -0.5967    3.0925    0.0000 H   0  0  0  0  0  0  0  0  0  0  0  0
   -2.9584    1.2790    0.0000 H   0  0  0  0  0  0  0  0  0  0  0  0
   -2.5798    3.2304    0.0000 H   0  0  0  0  0  0  0  0  0  0  0  0
   -0.9861   -3.1107    0.0000 H   0  0  0  0  0  0  0  0  0  0  0  0
   -3.1944   -3.4308    0.0000 H   0  0  0  0  0  0  0  0  0  0  0  0
   -5.6766   -1.3124    0.0000 H   0  0  0  0  0  0  0  0  0  0  0  0
   -1.8253    1.7718    0.0000 H   0  0  0  0  0  0  0  0  0  0  0  0
    3.7455   -3.4453    0.0000 H   0  0  0  0  0  0  0  0  0  0  0  0
    6.1249   -1.6181    0.0000 H   0  0  0  0  0  0  0  0  0  0  0  0
    2.9602    2.5031    0.0000 H   0  0  0  0  0  0  0  0  0  0  0  0
    0.5212    0.5027    0.0000 H   0  0  0  0  0  0  0  0  0  0  0  0
  1  2  1  0
  1 21  1  0
  1 22  1  0
  1 23  1  0
  2  3  1  0
  2  4  1  0
  2  5  1  0
  3 24  1  0
  3 25  1  0
  3 26  1  0
  4 27  1  0
  4 28  1  0
  4 29  1  0
  5  6  2  0
  5  7  1  0
  7  8  1  0
  7 13  1  0
  7 30  1  1
  8  9  1  0
  8 12  1  0
  9 10  2  0
  9 31  1  0
 10 11  1  0
 10 32  1  0
 11 12  2  0
 12 33  1  0
 13 14  1  0
 14 15  2  0
 14 19  1  0
 15 16  1  0
 15 34  1  0
 16 17  2  0
 16 35  1  0
 17 18  1  0
 17 20  1  0
 18 19  2  0
 18 36  1  0
 19 37  1  0
M  END
$$$$

     RDKit          2D

 43 44  0  0  0  0  0  0  0  0999 V2000
   -3.5537   -2.3241    0.0000 C   0  0  0  0  0  0  0  0  0  0  0  0
   -2.1348   -1.8377    0.0000 C   0  0  0  0  0  0  0  0  0  0  0  0
   -1.8464   -0.3657    0.0000 C   0  0  0  0  0  0  0  0  0  0  0  0
   -0.4275    0.1206    0.0000 C   0  0  0  0  0  0  0  0  0  0  0  0
    0.7032   -0.8651    0.0000 C   0  0  0  0  0  0  0  0  0  0  0  0
    0.4149   -2.3371    0.0000 C   0  0  0  0  0  0  0  0  0  0  0  0
   -1.0041   -2.8234    0.0000 N   0  0  0  0  0  0  0  0  0  0  0  0
    1.5455   -3.3228    0.0000 C   0  0  0  0  0  0  0  0  0  0  0  0
    2.1222   -0.3788    0.0000 C   0  0  0  0  0  0  0  0  0  0  0  0
    2.4601    0.3432    0.0000 O   0  0  0  0  0  0  0  0  0  0  0  0
    3.2528   -1.3645    0.0000 O   0  0  0  0  0  0  0  0  0  0  0  0
    4.6718   -0.8782    0.0000 C   0  0  0  0  0  0  0  0  0  0  0  0
    0.7396    1.0629    0.0000 C   0  0  0  0  0  0  0  0  0  0  0  0
    2.1392    0.5234    0.0000 C   0  0  0  0  0  0  0  0  0  0  0  0
    3.3063    1.4657    0.0000 C   0  0  0  0  0  0  0  0  0  0  0  0
    3.0738    2.9475    0.0000 C   0  0  0  0  0  0  0  0  0  0  0  0
    1.6742    3.4871    0.0000 C   0  0  0  0  0  0  0  0  0  0  0  0
    0.5071    2.5448    0.0000 C   0  0  0  0  0  0  0  0  0  0  0  0
   -0.8925    3.0843    0.0000 N   0  0  0  0  0  0  0  0  0  0  0  0
   -2.1657    2.2913    0.0000 O   0  0  0  0  0  0  0  0  0  0  0  0
   -1.1250    4.5662    0.0000 O   0  0  0  0  0  0  0  0  0  0  0  0
   -2.9771    0.6200    0.0000 C   0  0  0  0  0  0  0  0  0  0  0  0
   -2.8703    2.1162    0.0000 O   0  0  0  0  0  0  0  0  0  0  0  0
   -4.3961    0.1337    0.0000 O   0  0  0  0  0  0  0  0  0  0  0  0
   -5.5267    1.1194    0.0000 C   0  0  0  0  0  0  0  0  0  0  0  0
   -3.0674   -3.7430    0.0000 H   0  0  0  0  0  0  0  0  0  0  0  0
   -4.0400   -0.9051    0.0000 H   0  0  0  0  0  0  0  0  0  0  0  0
   -4.9727   -2.8104    0.0000 H   0  0  0  0  0  0  0  0  0  0  0  0
   -1.1528    1.4336    0.0000 H   0  0  0  0  0  0  0  0  0  0  0  0
   -1.2924   -4.2955    0.0000 H   0  0  0  0  0  0  0  0  0  0  0  0
    0.5598   -4.4535    0.0000 H   0  0  0  0  0  0  0  0  0  0  0  0
    2.5312   -2.1922    0.0000 H   0  0  0  0  0  0  0  0  0  0  0  0
    2.6762   -4.3086    0.0000 H   0  0  0  0  0  0  0  0  0  0  0  0
    5.1581   -2.2972    0.0000 H   0  0  0  0  0  0  0  0  0  0  0  0
    4.3621    0.5895    0.0000 H   0  0  0  0  0  0  0  0  0  0  0  0
    6.0908   -0.3919    0.0000 H   0  0  0  0  0  0  0  0  0  0  0  0
    2.7234   -0.8582    0.0000 H   0  0  0  0  0  0  0  0  0  0  0  0
    4.7612    1.1007    0.0000 H   0  0  0  0  0  0  0  0  0  0  0  0
    4.2408    3.8898    0.0000 H   0  0  0  0  0  0  0  0  0  0  0  0
    1.4416    4.9690    0.0000 H   0  0  0  0  0  0  0  0  0  0  0  0
   -6.5124   -0.0113    0.0000 H   0  0  0  0  0  0  0  0  0  0  0  0
   -4.5410    2.2501    0.0000 H   0  0  0  0  0  0  0  0  0  0  0  0
   -6.6574    2.1051    0.0000 H   0  0  0  0  0  0  0  0  0  0  0  0
  1  2  1  0
  1 26  1  0
  1 27  1  0
  1 28  1  0
  2  3  2  0
  2  7  1  0
  3  4  1  0
  3 22  1  0
  4  5  1  0
  4 13  1  0
  4 29  1  0
  5  6  2  0
  5  9  1  0
  6  7  1  0
  6  8  1  0
  7 30  1  0
  8 31  1  0
  8 32  1  0
  8 33  1  0
  9 10  2  0
  9 11  1  0
 11 12  1  0
 12 34  1  0
 12 35  1  0
 12 36  1  0
 13 14  2  0
 13 18  1  0
 14 15  1  0
 14 37  1  0
 15 16  2  0
 15 38  1  0
 16 17  1  0
 16 39  1  0
 17 18  2  0
 17 40  1  0
 18 19  1  0
 19 20  2  0
 19 21  1  0
 22 23  2  0
 22 24  1  0
 24 25  1  0
 25 41  1  0
 25 42  1  0
 25 43  1  0
M  CHG  2  19   1  21  -1
M  END
$$$$

     RDKit          2D

 47 49  0  0  0  0  0  0  0  0999 V2000
   -3.7598    3.0830    0.0000 C   0  0  0  0  0  0  0  0  0  0  0  0
   -3.9281    1.5925    0.0000 C   0  0  0  0  0  0  0  0  0  0  0  0
   -5.3030    0.9929    0.0000 C   0  0  0  0  0  0  0  0  0  0  0  0
   -5.4713   -0.4977    0.0000 C   0  0  0  0  0  0  0  0  0  0  0  0
   -4.2645   -1.3886    0.0000 C   0  0  0  0  0  0  0  0  0  0  0  0
   -2.8896   -0.7890    0.0000 C   0  0  0  0  0  0  0  0  0  0  0  0
   -2.7213    0.7015    0.0000 C   0  0  0  0  0  0  0  0  0  0  0  0
   -1.3464    1.3011    0.0000 O   0  0  0  0  0  0  0  0  0  0  0  0
   -0.1397    0.4101    0.0000 P   0  0  0  0  0  0  0  0  0  0  0  0
   -1.5146   -0.1895    0.0000 O   0  0  0  0  0  0  0  0  0  0  0  0
    0.0286    1.9006    0.0000 O   0  0  0  0  0  0  0  0  0  0  0  0
    1.4035    2.5002    0.0000 C   0  0  0  0  0  0  0  0  0  0  0  0
    1.5718    3.9907    0.0000 C   0  0  0  0  0  0  0  0  0  0  0  0
    2.9467    4.5903    0.0000 C   0  0  0  0  0  0  0  0  0  0  0  0
    4.1535    3.6993    0.0000 C   0  0  0  0  0  0  0  0  0  0  0  0
    3.9852    2.2088    0.0000 C   0  0  0  0  0  0  0  0  0  0  0  0
    2.6103    1.6092    0.0000 C   0  0  0  0  0  0  0  0  0  0  0  0
    2.4420    0.1187    0.0000 C   0  0  0  0  0  0  0  0  0  0  0  0
    1.0671   -0.4809    0.0000 O   0  0  0  0  0  0  0  0  0  0  0  0
    0.8988   -1.9714    0.0000 C   0  0  0  0  0  0  0  0  0  0  0  0
   -0.4761   -2.5710    0.0000 C   0  0  0  0  0  0  0  0  0  0  0  0
   -0.6444   -4.0615    0.0000 C   0  0  0  0  0  0  0  0  0  0  0  0
    0.5623   -4.9525    0.0000 C   0  0  0  0  0  0  0  0  0  0  0  0
    1.9373   -4.3529    0.0000 C   0  0  0  0  0  0  0  0  0  0  0  0
    2.1055   -2.8624    0.0000 C   0  0  0  0  0  0  0  0  0  0  0  0
    3.4805   -2.2628    0.0000 C   0  0  0  0  0  0  0  0  0  0  0  0
   -2.2693    2.9148    0.0000 H   0  0  0  0  0  0  0  0  0  0  0  0
   -5.2504    3.2512    0.0000 H   0  0  0  0  0  0  0  0  0  0  0  0
   -3.5916    4.5735    0.0000 H   0  0  0  0  0  0  0  0  0  0  0  0
   -6.5098    1.8838    0.0000 H   0  0  0  0  0  0  0  0  0  0  0  0
   -6.8462   -1.0972    0.0000 H   0  0  0  0  0  0  0  0  0  0  0  0
   -4.4328   -2.8792    0.0000 H   0  0  0  0  0  0  0  0  0  0  0  0
   -1.8005   -1.8205    0.0000 H   0  0  0  0  0  0  0  0  0  0  0  0
    0.3650    4.8817    0.0000 H   0  0  0  0  0  0  0  0  0  0  0  0
    3.1150    6.0808    0.0000 H   0  0  0  0  0  0  0  0  0  0  0  0
    5.5284    4.2989    0.0000 H   0  0  0  0  0  0  0  0  0  0  0  0
    5.1919    1.3178    0.0000 H   0  0  0  0  0  0  0  0  0  0  0  0
    3.9326   -0.0495    0.0000 H   0  0  0  0  0  0  0  0  0  0  0  0
    1.6518    0.0138    0.0000 H   0  0  0  0  0  0  0  0  0  0  0  0
    2.4567   -1.3812    0.0000 H   0  0  0  0  0  0  0  0  0  0  0  0
   -1.7825   -1.8337    0.0000 H   0  0  0  0  0  0  0  0  0  0  0  0
   -2.0193   -4.6611    0.0000 H   0  0  0  0  0  0  0  0  0  0  0  0
    0.3941   -6.4430    0.0000 H   0  0  0  0  0  0  0  0  0  0  0  0
    3.1440   -5.2439    0.0000 H   0  0  0  0  0  0  0  0  0  0  0  0
    4.0801   -3.6378    0.0000 H   0  0  0  0  0  0  0  0  0  0  0  0
    3.0530   -0.8250    0.0000 H   0  0  0  0  0  0  0  0  0  0  0  0
    4.8555   -1.6632    0.0000 H   0  0  0  0  0  0  0  0  0  0  0  0
  1  2  1  0
  1 27  1  0
  1 28  1  0
  1 29  1  0
  2  3  2  0
  2  7  1  0
  3  4  1  0
  3 30  1  0
  4  5  2  0
  4 31  1  0
  5  6  1  0
  5 32  1  0
  6  7  2  0
  6 33  1  0
  7  8  1  0
  8  9  1  0
  9 10  2  0
  9 11  1  0
  9 19  1  0
 11 12  1  0
 12 13  2  0
 12 17  1  0
 13 14  1  0
 13 34  1  0
 14 15  2  0
 14 35  1  0
 15 16  1  0
 15 36  1  0
 16 17  2  0
 16 37  1  0
 17 18  1  0
 18 38  1  0
 18 39  1  0
 18 40  1  0
 19 20  1  0
 20 21  2  0
 20 25  1  0
 21 22  1  0
 21 41  1  0
 22 23  2  0
 22 42  1  0
 23 24  1  0
 23 43  1  0
 24 25  2  0
 24 44  1  0
 25 26  1  0
 26 45  1  0
 26 46  1  0
 26 47  1  0
M  END
$$$$

     RDKit          2D

 30 29  0  0  0  0  0  0  0  0999 V2000
   -1.5000   -1.2990    0.0000 C   0  0  0  0  0  0  0  0  0  0  0  0
   -3.0000   -1.2990    0.0000 C   0  0  0  0  0  0  0  0  0  0  0  0
   -3.7500    0.0000    0.0000 C   0  0  0  0  0  0  0  0  0  0  0  0
   -3.0000    1.2990    0.0000 C   0  0  0  0  0  0  0  0  0  0  0  0
   -1.5000    1.2990    0.0000 C   0  0  0  0  0  0  0  0  0  0  0  0
   -0.7500    0.0000    0.0000 C   0  0  0  0  0  0  0  0  0  0  0  0
    0.7500    0.0000    0.0000 C   0  0  0  0  0  0  0  0  0  0  0  0
    1.5000   -1.2990    0.0000 C   0  0  0  0  0  0  0  0  0  0  0  0
    3.0000   -1.2990    0.0000 C   0  0  0  0  0  0  0  0  0  0  0  0
    3.7500    0.0000    0.0000 C   0  0  0  0  0  0  0  0  0  0  0  0
    3.0000    1.2990    0.0000 C   0  0  0  0  0  0  0  0  0  0  0  0
    1.5000    1.2990    0.0000 C   0  0  0  0  0  0  0  0  0  0  0  0
    5.2500    0.0000    0.0000 N   0  0  0  0  0  0  0  0  0  0  0  0
    3.7500   -2.5981    0.0000 Cl  0  0  0  0  0  0  0  0  0  0  0  0
   -3.7500    2.5981    0.0000 Cl  0  0  0  0  0  0  0  0  0  0  0  0
   -5.2500    0.0000    0.0000 N   0  0  0  0  0  0  0  0  0  0  0  0
   -0.7500    3.5981    0.0000 Cl  0  0  0  0  0  0  0  0  0  0  0  0
   -0.7500    4.5981    0.0000 Cl  0  0  0  0  0  0  0  0  0  0  0  0
   -0.7500   -2.5981    0.0000 H   0  0  0  0  0  0  0  0  0  0  0  0
   -3.7500   -2.5981    0.0000 H   0  0  0  0  0  0  0  0  0  0  0  0
   -0.7500    2.5981    0.0000 H   0  0  0  0  0  0  0  0  0  0  0  0
    0.7500   -2.5981    0.0000 H   0  0  0  0  0  0  0  0  0  0  0  0
    3.7500    2.5981    0.0000 H   0  0  0  0  0  0  0  0  0  0  0  0
    0.7500    2.5981    0.0000 H   0  0  0  0  0  0  0  0  0  0  0  0
    6.0000    1.2990    0.0000 H   0  0  0  0  0  0  0  0  0  0  0  0
    6.0000   -1.2990    0.0000 H   0  0  0  0  0  0  0  0  0  0  0  0
   -6.0000    1.2990    0.0000 H   0  0  0  0  0  0  0  0  0  0  0  0
   -6.0000   -1.2990    0.0000 H   0  0  0  0  0  0  0  0  0  0  0  0
    0.7500    3.5981    0.0000 H   0  0  0  0  0  0  0  0  0  0  0  0
    0.7500    4.5981    0.0000 H   0  0  0  0  0  0  0  0  0  0  0  0
  1  2  2  0
  1  6  1  0
  1 19  1  0
  2  3  1  0
  2 20  1  0
  3  4  2  0
  3 16  1  0
  4  5  1  0
  4 15  1  0
  5  6  2  0
  5 21  1  0
  6  7  1  0
  7  8  2  0
  7 12  1  0
  8  9  1  0
  8 22  1  0
  9 10  2  0
  9 14  1  0
 10 11  1  0
 10 13  1  0
 11 12  2  0
 11 23  1  0
 12 24  1  0
 13 25  1  0
 13 26  1  0
 16 27  1  0
 16 28  1  0
 17 29  1  0
 18 30  1  0
M  END
$$$$

     RDKit          2D

 45 46  0  0  0  0  0  0  0  0999 V2000
    5.0544   -0.7664    0.0000 C   0  0  0  0  0  0  0  0  0  0  0  0
    3.7095   -1.4306    0.0000 C   0  0  0  0  0  0  0  0  0  0  0  0
    2.4618   -0.5980    0.0000 C   0  0  0  0  0  0  0  0  0  0  0  0
    2.5591    0.8989    0.0000 C   0  0  0  0  0  0  0  0  0  0  0  0
    3.9040    1.5631    0.0000 C   0  0  0  0  0  0  0  0  0  0  0  0
    5.1517    0.7304    0.0000 C   0  0  0  0  0  0  0  0  0  0  0  0
    6.6089    0.3747    0.0000 C   0  0  0  0  0  0  0  0  0  0  0  0
    8.0661    0.0190    0.0000 N   0  0  0  0  0  0  0  0  0  0  0  0
    1.0046   -0.2423    0.0000 C   0  0  0  0  0  0  0  0  0  0  0  0
    0.6156    0.6617    0.0000 O   0  0  0  0  0  0  0  0  0  0  0  0
   -0.0320   -1.3264    0.0000 O   0  0  0  0  0  0  0  0  0  0  0  0
   -1.4893   -0.9707    0.0000 C   0  0  0  0  0  0  0  0  0  0  0  0
   -1.9098    0.4691    0.0000 C   0  0  0  0  0  0  0  0  0  0  0  0
   -3.3670    0.8248    0.0000 C   0  0  0  0  0  0  0  0  0  0  0  0
   -4.4037   -0.2593    0.0000 C   0  0  0  0  0  0  0  0  0  0  0  0
   -3.9831   -1.6992    0.0000 C   0  0  0  0  0  0  0  0  0  0  0  0
   -2.5259   -2.0548    0.0000 C   0  0  0  0  0  0  0  0  0  0  0  0
   -5.8609    0.0964    0.0000 C   0  0  0  0  0  0  0  0  0  0  0  0
   -7.3181    0.4521    0.0000 C   0  0  0  0  0  0  0  0  0  0  0  0
   -8.7753    0.8078    0.0000 C   0  0  0  0  0  0  0  0  0  0  0  0
   -9.1959    2.2476    0.0000 O   0  0  0  0  0  0  0  0  0  0  0  0
   -9.8120   -0.2764    0.0000 O   0  0  0  0  0  0  0  0  0  0  0  0
    5.8515   -0.7764    0.0000 H   0  0  0  0  0  0  0  0  0  0  0  0
    5.4750   -2.2062    0.0000 H   0  0  0  0  0  0  0  0  0  0  0  0
    4.5972   -2.6398    0.0000 H   0  0  0  0  0  0  0  0  0  0  0  0
    2.6729   -2.5147    0.0000 H   0  0  0  0  0  0  0  0  0  0  0  0
    1.8585   -1.9713    0.0000 H   0  0  0  0  0  0  0  0  0  0  0  0
    1.5750    0.9112    0.0000 H   0  0  0  0  0  0  0  0  0  0  0  0
    2.1385    2.3387    0.0000 H   0  0  0  0  0  0  0  0  0  0  0  0
    3.0164    2.7722    0.0000 H   0  0  0  0  0  0  0  0  0  0  0  0
    4.9407    2.6472    0.0000 H   0  0  0  0  0  0  0  0  0  0  0  0
    5.7550    2.1038    0.0000 H   0  0  0  0  0  0  0  0  0  0  0  0
    6.5157   -0.4169    0.0000 H   0  0  0  0  0  0  0  0  0  0  0  0
    6.9646    1.8320    0.0000 H   0  0  0  0  0  0  0  0  0  0  0  0
    9.1028    1.1032    0.0000 H   0  0  0  0  0  0  0  0  0  0  0  0
    8.4867   -1.4208    0.0000 H   0  0  0  0  0  0  0  0  0  0  0  0
   -0.8732    1.5533    0.0000 H   0  0  0  0  0  0  0  0  0  0  0  0
   -3.7876    2.2647    0.0000 H   0  0  0  0  0  0  0  0  0  0  0  0
   -5.0198   -2.7833    0.0000 H   0  0  0  0  0  0  0  0  0  0  0  0
   -2.1053   -3.4947    0.0000 H   0  0  0  0  0  0  0  0  0  0  0  0
   -6.2166   -1.3608    0.0000 H   0  0  0  0  0  0  0  0  0  0  0  0
   -5.5052    1.5536    0.0000 H   0  0  0  0  0  0  0  0  0  0  0  0
   -7.6738   -1.0051    0.0000 H   0  0  0  0  0  0  0  0  0  0  0  0
   -6.9624    1.9093    0.0000 H   0  0  0  0  0  0  0  0  0  0  0  0
  -11.2692    0.0793    0.0000 H   0  0  0  0  0  0  0  0  0  0  0  0
  1  2  1  0
  1  6  1  0
  1 23  1  0
  1 24  1  0
  2  3  1  0
  2 25  1  0
  2 26  1  0
  3  4  1  0
  3  9  1  0
  3 27  1  6
  4  5  1  0
  4 28  1  0
  4 29  1  0
  5  6  1  0
  5 30  1  0
  5 31  1  0
  6  7  1  0
  6 32  1  6
  7  8  1  0
  7 33  1  0
  7 34  1  0
  8 35  1  0
  8 36  1  0
  9 10  2  0
  9 11  1  0
 11 12  1  0
 12 13  2  0
 12 17  1  0
 13 14  1  0
 13 37  1  0
 14 15  2  0
 14 38  1  0
 15 16  1  0
 15 18  1  0
 16 17  2  0
 16 39  1  0
 17 40  1  0
 18 19  1  0
 18 41  1  0
 18 42  1  0
 19 20  1  0
 19 43  1  0
 19 44  1  0
 20 21  2  0
 20 22  1  0
 22 45  1  0
M  END
$$$$

     RDKit          2D

 51 54  0  0  1  0  0  0  0  0999 V2000
   -3.6161    2.3268    0.0000 C   0  0  0  0  0  0  0  0  0  0  0  0
   -2.6639    1.1678    0.0000 C   0  0  0  0  0  0  0  0  0  0  0  0
   -1.7116    0.0088    0.0000 C   0  0  0  0  0  0  0  0  0  0  0  0
   -1.0402    1.3501    0.0000 C   0  0  0  0  0  0  0  0  0  0  0  0
    0.4572    1.4393    0.0000 C   0  0  0  0  0  0  0  0  0  0  0  0
    1.2831    0.1871    0.0000 C   0  0  0  0  0  0  0  0  0  0  0  0
    0.6116   -1.1542    0.0000 C   0  0  0  0  0  0  0  0  0  0  0  0
   -0.8858   -1.2434    0.0000 C   0  0  0  0  0  0  0  0  0  0  0  0
   -1.8214   -2.4158    0.0000 C   0  0  0  0  0  0  0  0  0  0  0  0
   -3.2256   -1.8882    0.0000 C   0  0  0  0  0  0  0  0  0  0  0  0
   -3.1577   -0.3897    0.0000 C   0  0  0  0  0  0  0  0  0  0  0  0
   -4.6551   -0.4789    0.0000 C   0  0  0  0  0  0  0  0  0  0  0  0
   -6.1524   -0.5680    0.0000 C   0  0  0  0  0  0  0  0  0  0  0  0
   -3.4029    1.0901    0.0000 O   0  0  0  0  0  0  0  0  0  0  0  0
    1.4375   -2.4064    0.0000 C   0  0  0  0  0  0  0  0  0  0  0  0
    2.9348   -2.3172    0.0000 C   0  0  0  0  0  0  0  0  0  0  0  0
    3.6063   -0.9759    0.0000 C   0  0  0  0  0  0  0  0  0  0  0  0
    5.1036   -0.8868    0.0000 C   0  0  0  0  0  0  0  0  0  0  0  0
    5.7751    0.4546    0.0000 C   0  0  0  0  0  0  0  0  0  0  0  0
    7.2725    0.5437    0.0000 O   0  0  0  0  0  0  0  0  0  0  0  0
    4.9492    1.7067    0.0000 C   0  0  0  0  0  0  0  0  0  0  0  0
    3.4519    1.6176    0.0000 C   0  0  0  0  0  0  0  0  0  0  0  0
    2.7804    0.2763    0.0000 C   0  0  0  0  0  0  0  0  0  0  0  0
   -2.4571    3.2790    0.0000 H   0  0  0  0  0  0  0  0  0  0  0  0
   -4.8825    1.5229    0.0000 H   0  0  0  0  0  0  0  0  0  0  0  0
   -4.5684    3.4857    0.0000 H   0  0  0  0  0  0  0  0  0  0  0  0
   -3.8229    0.2155    0.0000 H   0  0  0  0  0  0  0  0  0  0  0  0
   -1.5049    2.1200    0.0000 H   0  0  0  0  0  0  0  0  0  0  0  0
   -0.8680    2.8402    0.0000 H   0  0  0  0  0  0  0  0  0  0  0  0
   -2.3313    2.1136    0.0000 H   0  0  0  0  0  0  0  0  0  0  0  0
    1.6486    2.3505    0.0000 H   0  0  0  0  0  0  0  0  0  0  0  0
    0.1094    2.8984    0.0000 H   0  0  0  0  0  0  0  0  0  0  0  0
    1.9545    1.5284    0.0000 H   0  0  0  0  0  0  0  0  0  0  0  0
   -0.0599   -2.4955    0.0000 H   0  0  0  0  0  0  0  0  0  0  0  0
   -0.3582    0.1608    0.0000 H   0  0  0  0  0  0  0  0  0  0  0  0
   -0.7907   -3.5055    0.0000 H   0  0  0  0  0  0  0  0  0  0  0  0
   -2.4929   -3.7571    0.0000 H   0  0  0  0  0  0  0  0  0  0  0  0
   -3.6035   -3.3398    0.0000 H   0  0  0  0  0  0  0  0  0  0  0  0
   -4.7087   -1.6641    0.0000 H   0  0  0  0  0  0  0  0  0  0  0  0
   -7.6498   -0.6572    0.0000 H   0  0  0  0  0  0  0  0  0  0  0  0
   -4.8609    1.4426    0.0000 H   0  0  0  0  0  0  0  0  0  0  0  0
    1.7853   -3.8655    0.0000 H   0  0  0  0  0  0  0  0  0  0  0  0
    0.2460   -3.3177    0.0000 H   0  0  0  0  0  0  0  0  0  0  0  0
    4.3724   -2.7456    0.0000 H   0  0  0  0  0  0  0  0  0  0  0  0
    2.7626   -3.8073    0.0000 H   0  0  0  0  0  0  0  0  0  0  0  0
    5.9295   -2.1389    0.0000 H   0  0  0  0  0  0  0  0  0  0  0  0
    4.6014    3.1658    0.0000 H   0  0  0  0  0  0  0  0  0  0  0  0
    6.3258    2.3026    0.0000 H   0  0  0  0  0  0  0  0  0  0  0  0
    2.1607    2.3810    0.0000 H   0  0  0  0  0  0  0  0  0  0  0  0
    3.6241    3.1076    0.0000 H   0  0  0  0  0  0  0  0  0  0  0  0
    2.1089   -1.0651    0.0000 H   0  0  0  0  0  0  0  0  0  0  0  0
  1  2  1  0
  1 24  1  0
  1 25  1  0
  1 26  1  0
  2 27  1  0
  2 28  1  0
  3  4  1  0
  3  8  1  0
  3 11  1  0
  3  2  1  1
  4  5  1  0
  4 29  1  0
  4 30  1  0
  5  6  1  0
  5 31  1  0
  5 32  1  0
  6  7  1  0
  6 23  1  0
  6 33  1  6
  7  8  1  0
  7 15  1  0
  7 34  1  1
  8  9  1  0
  8 35  1  6
  9 10  1  0
  9 36  1  0
  9 37  1  0
 10 11  1  0
 10 38  1  0
 10 39  1  0
 11 12  1  1
 11 14  1  0
 12 13  3  0
 13 40  1  0
 14 41  1  0
 15 16  1  0
 15 42  1  0
 15 43  1  0
 16 17  1  0
 16 44  1  0
 16 45  1  0
 17 18  2  0
 17 23  1  0
 18 19  1  0
 18 46  1  0
 19 21  1  0
 19 20  2  0
 21 22  1  0
 21 47  1  0
 21 48  1  0
 22 23  1  0
 22 49  1  0
 22 50  1  0
 23 51  1  6
M  END
$$$$

     RDKit          2D

 49 49  0  0  0  0  0  0  0  0999 V2000
   -8.6094    1.6983    0.0000 C   0  0  0  0  0  0  0  0  0  0  0  0
   -8.4355    0.2084    0.0000 C   0  0  0  0  0  0  0  0  0  0  0  0
   -9.9254    0.0345    0.0000 C   0  0  0  0  0  0  0  0  0  0  0  0
   -6.9456    0.3824    0.0000 C   0  0  0  0  0  0  0  0  0  0  0  0
   -6.0500   -0.8209    0.0000 C   0  0  0  0  0  0  0  0  0  0  0  0
   -4.5602   -0.6470    0.0000 C   0  0  0  0  0  0  0  0  0  0  0  0
   -3.0703   -0.4731    0.0000 C   0  0  0  0  0  0  0  0  0  0  0  0
   -1.5804   -0.2991    0.0000 C   0  0  0  0  0  0  0  0  0  0  0  0
   -0.0905   -0.1252    0.0000 C   0  0  0  0  0  0  0  0  0  0  0  0
    1.3994    0.0487    0.0000 C   0  0  0  0  0  0  0  0  0  0  0  0
    1.9937    1.4260    0.0000 O   0  0  0  0  0  0  0  0  0  0  0  0
    2.2949   -1.1546    0.0000 N   0  0  0  0  0  0  0  0  0  0  0  0
    3.7848   -0.9806    0.0000 C   0  0  0  0  0  0  0  0  0  0  0  0
    5.2747   -0.8067    0.0000 C   0  0  0  0  0  0  0  0  0  0  0  0
    5.8690    0.5705    0.0000 C   0  0  0  0  0  0  0  0  0  0  0  0
    7.3589    0.7445    0.0000 C   0  0  0  0  0  0  0  0  0  0  0  0
    8.2545   -0.4588    0.0000 C   0  0  0  0  0  0  0  0  0  0  0  0
    7.6602   -1.8361    0.0000 C   0  0  0  0  0  0  0  0  0  0  0  0
    6.1703   -2.0100    0.0000 C   0  0  0  0  0  0  0  0  0  0  0  0
    9.7443   -0.2849    0.0000 O   0  0  0  0  0  0  0  0  0  0  0  0
    7.9532    2.1217    0.0000 O   0  0  0  0  0  0  0  0  0  0  0  0
    9.4431    2.2957    0.0000 C   0  0  0  0  0  0  0  0  0  0  0  0
   -9.4951    1.7036    0.0000 H   0  0  0  0  0  0  0  0  0  0  0  0
   -7.1519    2.0526    0.0000 H   0  0  0  0  0  0  0  0  0  0  0  0
   -8.7834    3.1882    0.0000 H   0  0  0  0  0  0  0  0  0  0  0  0
   -8.2616   -1.2814    0.0000 H   0  0  0  0  0  0  0  0  0  0  0  0
  -10.1346    0.8952    0.0000 H   0  0  0  0  0  0  0  0  0  0  0  0
   -9.7514   -1.4554    0.0000 H   0  0  0  0  0  0  0  0  0  0  0  0
  -11.4153   -0.1394    0.0000 H   0  0  0  0  0  0  0  0  0  0  0  0
   -6.1879    1.6769    0.0000 H   0  0  0  0  0  0  0  0  0  0  0  0
   -6.6444   -2.1982    0.0000 H   0  0  0  0  0  0  0  0  0  0  0  0
   -4.7341    0.8429    0.0000 H   0  0  0  0  0  0  0  0  0  0  0  0
   -4.3862   -2.1369    0.0000 H   0  0  0  0  0  0  0  0  0  0  0  0
   -2.8963   -1.9629    0.0000 H   0  0  0  0  0  0  0  0  0  0  0  0
   -3.2442    1.0168    0.0000 H   0  0  0  0  0  0  0  0  0  0  0  0
   -1.4065   -1.7890    0.0000 H   0  0  0  0  0  0  0  0  0  0  0  0
   -1.7543    1.1908    0.0000 H   0  0  0  0  0  0  0  0  0  0  0  0
   -0.2645    1.3647    0.0000 H   0  0  0  0  0  0  0  0  0  0  0  0
    0.0834   -1.6151    0.0000 H   0  0  0  0  0  0  0  0  0  0  0  0
    1.7006   -2.5318    0.0000 H   0  0  0  0  0  0  0  0  0  0  0  0
    3.9588   -2.4705    0.0000 H   0  0  0  0  0  0  0  0  0  0  0  0
    3.6109    0.5092    0.0000 H   0  0  0  0  0  0  0  0  0  0  0  0
    4.9734    1.7738    0.0000 H   0  0  0  0  0  0  0  0  0  0  0  0
    8.5557   -3.0394    0.0000 H   0  0  0  0  0  0  0  0  0  0  0  0
    5.5760   -3.3873    0.0000 H   0  0  0  0  0  0  0  0  0  0  0  0
   10.2415    0.5644    0.0000 H   0  0  0  0  0  0  0  0  0  0  0  0
    9.2691    3.7855    0.0000 H   0  0  0  0  0  0  0  0  0  0  0  0
    9.6755    1.3393    0.0000 H   0  0  0  0  0  0  0  0  0  0  0  0
   10.9330    2.4696    0.0000 H   0  0  0  0  0  0  0  0  0  0  0  0
  1  2  1  0
  1 23  1  0
  1 24  1  0
  1 25  1  0
  2  3  1  0
  2  4  1  0
  2 26  1  0
  3 27  1  0
  3 28  1  0
  3 29  1  0
  4  5  2  0
  4 30  1  0
  5  6  1  0
  5 31  1  0
  6  7  1  0
  6 32  1  0
  6 33  1  0
  7  8  1  0
  7 34  1  0
  7 35  1  0
  8  9  1  0
  8 36  1  0
  8 37  1  0
  9 10  1  0
  9 38  1  0
  9 39  1  0
 10 11  2  0
 10 12  1  0
 12 13  1  0
 12 40  1  0
 13 14  1  0
 13 41  1  0
 13 42  1  0
 14 15  2  0
 14 19  1  0
 15 16  1  0
 15 43  1  0
 16 17  2  0
 16 21  1  0
 17 18  1  0
 17 20  1  0
 18 19  2  0
 18 44  1  0
 19 45  1  0
 20 46  1  0
 21 22  1  0
 22 47  1  0
 22 48  1  0
 22 49  1  0
M  END
$$$$

     RDKit          2D

 75 74  0  0  0  0  0  0  0  0999 V2000
   -7.4540   -0.1363    0.0000 C   0  0  0  0  0  0  0  0  0  0  0  0
   -6.7047    1.1631    0.0000 C   0  0  0  0  0  0  0  0  0  0  0  0
   -5.2047    1.1639    0.0000 C   0  0  0  0  0  0  0  0  0  0  0  0
   -4.4540   -0.1348    0.0000 C   0  0  0  0  0  0  0  0  0  0  0  0
   -5.2034   -1.4342    0.0000 C   0  0  0  0  0  0  0  0  0  0  0  0
   -6.7034   -1.4350    0.0000 C   0  0  0  0  0  0  0  0  0  0  0  0
   -7.4527   -2.7344    0.0000 C   0  0  0  0  0  0  0  0  0  0  0  0
   -6.7020   -4.0331    0.0000 N   0  0  0  0  0  0  0  0  0  0  0  0
   -8.9527   -2.7352    0.0000 N   0  0  0  0  0  0  0  0  0  0  0  0
   -4.4553    2.4633    0.0000 O   0  0  0  0  0  0  0  0  0  0  0  0
   -2.9553    2.4640    0.0000 C   0  0  0  0  0  0  0  0  0  0  0  0
   -1.4553    2.4648    0.0000 C   0  0  0  0  0  0  0  0  0  0  0  0
    0.0447    2.4655    0.0000 C   0  0  0  0  0  0  0  0  0  0  0  0
    1.5447    2.4663    0.0000 C   0  0  0  0  0  0  0  0  0  0  0  0
    3.0447    2.4671    0.0000 C   0  0  0  0  0  0  0  0  0  0  0  0
    4.5447    2.4678    0.0000 O   0  0  0  0  0  0  0  0  0  0  0  0
    5.2953    1.1692    0.0000 C   0  0  0  0  0  0  0  0  0  0  0  0
    4.5460   -0.1303    0.0000 C   0  0  0  0  0  0  0  0  0  0  0  0
    5.2966   -1.4289    0.0000 C   0  0  0  0  0  0  0  0  0  0  0  0
    6.7966   -1.4282    0.0000 C   0  0  0  0  0  0  0  0  0  0  0  0
    7.5460   -0.1287    0.0000 C   0  0  0  0  0  0  0  0  0  0  0  0
    6.7953    1.1699    0.0000 C   0  0  0  0  0  0  0  0  0  0  0  0
    7.5473   -2.7268    0.0000 C   0  0  0  0  0  0  0  0  0  0  0  0
    9.0473   -2.7261    0.0000 N   0  0  0  0  0  0  0  0  0  0  0  0
    6.7980   -4.0262    0.0000 N   0  0  0  0  0  0  0  0  0  0  0  0
   -1.5000    6.4671    0.0000 C   0  0  0  0  0  0  0  0  0  0  0  0
    0.0000    6.4671    0.0000 C   0  0  0  0  0  0  0  0  0  0  0  0
    1.5000    6.4671    0.0000 S   0  0  0  0  0  0  0  0  0  0  0  0
    1.5000    4.9671    0.0000 O   0  0  0  0  0  0  0  0  0  0  0  0
    1.5000    7.9671    0.0000 O   0  0  0  0  0  0  0  0  0  0  0  0
    3.0000    6.4671    0.0000 O   0  0  0  0  0  0  0  0  0  0  0  0
   -3.0000    6.4671    0.0000 O   0  0  0  0  0  0  0  0  0  0  0  0
   -1.5000   10.4671    0.0000 C   0  0  0  0  0  0  0  0  0  0  0  0
    0.0000   10.4671    0.0000 C   0  0  0  0  0  0  0  0  0  0  0  0
    1.5000   10.4671    0.0000 S   0  0  0  0  0  0  0  0  0  0  0  0
    1.5000    8.9671    0.0000 O   0  0  0  0  0  0  0  0  0  0  0  0
    1.5000   11.9671    0.0000 O   0  0  0  0  0  0  0  0  0  0  0  0
    3.0000   10.4671    0.0000 O   0  0  0  0  0  0  0  0  0  0  0  0
   -3.0000   10.4671    0.0000 O   0  0  0  0  0  0  0  0  0  0  0  0
   -8.9540   -0.1371    0.0000 H   0  0  0  0  0  0  0  0  0  0  0  0
   -7.4553    2.4618    0.0000 H   0  0  0  0  0  0  0  0  0  0  0  0
   -2.9540   -0.1340    0.0000 H   0  0  0  0  0  0  0  0  0  0  0  0
   -4.4527   -2.7329    0.0000 H   0  0  0  0  0  0  0  0  0  0  0  0
   -5.2020   -4.0323    0.0000 H   0  0  0  0  0  0  0  0  0  0  0  0
   -9.7020   -4.0346    0.0000 H   0  0  0  0  0  0  0  0  0  0  0  0
   -9.7034   -1.4365    0.0000 H   0  0  0  0  0  0  0  0  0  0  0  0
   -2.9561    3.9640    0.0000 H   0  0  0  0  0  0  0  0  0  0  0  0
   -2.9546    0.9640    0.0000 H   0  0  0  0  0  0  0  0  0  0  0  0
   -1.4546    0.9648    0.0000 H   0  0  0  0  0  0  0  0  0  0  0  0
   -1.4561    3.9648    0.0000 H   0  0  0  0  0  0  0  0  0  0  0  0
    0.0454    0.9655    0.0000 H   0  0  0  0  0  0  0  0  0  0  0  0
    0.0439    3.9655    0.0000 H   0  0  0  0  0  0  0  0  0  0  0  0
    1.5439    3.9663    0.0000 H   0  0  0  0  0  0  0  0  0  0  0  0
    1.5454    0.9663    0.0000 H   0  0  0  0  0  0  0  0  0  0  0  0
    3.0454    0.9671    0.0000 H   0  0  0  0  0  0  0  0  0  0  0  0
    3.0439    3.9671    0.0000 H   0  0  0  0  0  0  0  0  0  0  0  0
    3.0460   -0.1310    0.0000 H   0  0  0  0  0  0  0  0  0  0  0  0
    4.5473   -2.7283    0.0000 H   0  0  0  0  0  0  0  0  0  0  0  0
    9.0460   -0.1280    0.0000 H   0  0  0  0  0  0  0  0  0  0  0  0
    7.5447    2.4693    0.0000 H   0  0  0  0  0  0  0  0  0  0  0  0
    9.7966   -1.4266    0.0000 H   0  0  0  0  0  0  0  0  0  0  0  0
    7.5486   -5.3249    0.0000 H   0  0  0  0  0  0  0  0  0  0  0  0
    5.2980   -4.0270    0.0000 H   0  0  0  0  0  0  0  0  0  0  0  0
   -1.5000    4.9671    0.0000 H   0  0  0  0  0  0  0  0  0  0  0  0
   -1.5000    7.9671    0.0000 H   0  0  0  0  0  0  0  0  0  0  0  0
    0.0000    4.9671    0.0000 H   0  0  0  0  0  0  0  0  0  0  0  0
   -0.0000    7.9671    0.0000 H   0  0  0  0  0  0  0  0  0  0  0  0
    3.7500    7.7661    0.0000 H   0  0  0  0  0  0  0  0  0  0  0  0
   -3.7500    7.7661    0.0000 H   0  0  0  0  0  0  0  0  0  0  0  0
   -1.5000    8.9671    0.0000 H   0  0  0  0  0  0  0  0  0  0  0  0
   -1.5000   11.9671    0.0000 H   0  0  0  0  0  0  0  0  0  0  0  0
    0.0000    8.9671    0.0000 H   0  0  0  0  0  0  0  0  0  0  0  0
   -0.0000   11.9671    0.0000 H   0  0  0  0  0  0  0  0  0  0  0  0
    3.7500   11.7661    0.0000 H   0  0  0  0  0  0  0  0  0  0  0  0
   -3.7500   11.7661    0.0000 H   0  0  0  0  0  0  0  0  0  0  0  0
  1  2  2  0
  1  6  1  0
  1 40  1  0
  2  3  1  0
  2 41  1  0
  3  4  2  0
  3 10  1  0
  4  5  1  0
  4 42  1  0
  5  6  2  0
  5 43  1  0
  6  7  1  0
  7  8  2  0
  7  9  1  0
  8 44  1  0
  9 45  1  0
  9 46  1  0
 10 11  1  0
 11 12  1  0
 11 47  1  0
 11 48  1  0
 12 13  1  0
 12 49  1  0
 12 50  1  0
 13 14  1  0
 13 51  1  0
 13 52  1  0
 14 15  1  0
 14 53  1  0
 14 54  1  0
 15 16  1  0
 15 55  1  0
 15 56  1  0
 16 17  1  0
 17 18  2  0
 17 22  1  0
 18 19  1  0
 18 57  1  0
 19 20  2  0
 19 58  1  0
 20 21  1  0
 20 23  1  0
 21 22  2  0
 21 59  1  0
 22 60  1  0
 23 24  2  0
 23 25  1  0
 24 61  1  0
 25 62  1  0
 25 63  1  0
 26 27  1  0
 26 32  1  0
 26 64  1  0
 26 65  1  0
 27 28  1  0
 27 66  1  0
 27 67  1  0
 28 29  2  0
 28 30  2  0
 28 31  1  0
 31 68  1  0
 32 69  1  0
 33 34  1  0
 33 39  1  0
 33 70  1  0
 33 71  1  0
 34 35  1  0
 34 72  1  0
 34 73  1  0
 35 36  2  0
 35 37  2  0
 35 38  1  0
 38 74  1  0
 39 75  1  0
M  END
$$$$

     RDKit          2D

 41 42  0  0  0  0  0  0  0  0999 V2000
   -0.5890   -3.3522    0.0000 C   0  0  0  0  0  0  0  0  0  0  0  0
   -1.8719   -2.5748    0.0000 C   0  0  0  0  0  0  0  0  0  0  0  0
   -3.1547   -1.7974    0.0000 C   0  0  0  0  0  0  0  0  0  0  0  0
   -2.6493   -3.8577    0.0000 C   0  0  0  0  0  0  0  0  0  0  0  0
   -3.4267   -5.1405    0.0000 N   0  0  0  0  0  0  0  0  0  0  0  0
   -1.0945   -1.2920    0.0000 C   0  0  0  0  0  0  0  0  0  0  0  0
   -1.8167    0.0226    0.0000 C   0  0  0  0  0  0  0  0  0  0  0  0
   -1.0393    1.3055    0.0000 C   0  0  0  0  0  0  0  0  0  0  0  0
    0.4603    1.2736    0.0000 C   0  0  0  0  0  0  0  0  0  0  0  0
    1.1826   -0.0410    0.0000 C   0  0  0  0  0  0  0  0  0  0  0  0
    0.4052   -1.3238    0.0000 C   0  0  0  0  0  0  0  0  0  0  0  0
    2.6823   -0.0728    0.0000 C   0  0  0  0  0  0  0  0  0  0  0  0
    4.1819   -0.1047    0.0000 N   0  0  0  0  0  0  0  0  0  0  0  0
    5.0891    1.0899    0.0000 C   0  0  0  0  0  0  0  0  0  0  0  0
    6.5056    0.5962    0.0000 N   0  0  0  0  0  0  0  0  0  0  0  0
    6.4737   -0.9035    0.0000 C   0  0  0  0  0  0  0  0  0  0  0  0
    5.0376   -1.3366    0.0000 N   0  0  0  0  0  0  0  0  0  0  0  0
   -1.7616    2.6201    0.0000 C   0  0  0  0  0  0  0  0  0  0  0  0
   -3.0763    1.8979    0.0000 C   0  0  0  0  0  0  0  0  0  0  0  0
   -0.4469    3.3424    0.0000 C   0  0  0  0  0  0  0  0  0  0  0  0
   -2.4839    3.9348    0.0000 C   0  0  0  0  0  0  0  0  0  0  0  0
   -3.2061    5.2495    0.0000 N   0  0  0  0  0  0  0  0  0  0  0  0
   -1.3664   -4.6351    0.0000 H   0  0  0  0  0  0  0  0  0  0  0  0
    0.0397   -2.7283    0.0000 H   0  0  0  0  0  0  0  0  0  0  0  0
    0.6938   -4.1296    0.0000 H   0  0  0  0  0  0  0  0  0  0  0  0
   -3.9321   -3.0803    0.0000 H   0  0  0  0  0  0  0  0  0  0  0  0
   -2.8926   -0.9514    0.0000 H   0  0  0  0  0  0  0  0  0  0  0  0
   -4.4375   -1.0200    0.0000 H   0  0  0  0  0  0  0  0  0  0  0  0
   -2.6137    0.0396    0.0000 H   0  0  0  0  0  0  0  0  0  0  0  0
    1.2377    2.5565    0.0000 H   0  0  0  0  0  0  0  0  0  0  0  0
    0.8317   -2.1001    0.0000 H   0  0  0  0  0  0  0  0  0  0  0  0
    2.7141    1.4268    0.0000 H   0  0  0  0  0  0  0  0  0  0  0  0
    2.6504   -1.5725    0.0000 H   0  0  0  0  0  0  0  0  0  0  0  0
    4.6560    2.5260    0.0000 H   0  0  0  0  0  0  0  0  0  0  0  0
    7.6683   -1.8107    0.0000 H   0  0  0  0  0  0  0  0  0  0  0  0
   -3.7985    3.2125    0.0000 H   0  0  0  0  0  0  0  0  0  0  0  0
   -2.7318    0.5926    0.0000 H   0  0  0  0  0  0  0  0  0  0  0  0
   -4.3909    1.1756    0.0000 H   0  0  0  0  0  0  0  0  0  0  0  0
   -1.1692    4.6571    0.0000 H   0  0  0  0  0  0  0  0  0  0  0  0
    0.5720    2.2416    0.0000 H   0  0  0  0  0  0  0  0  0  0  0  0
    0.8677    4.0647    0.0000 H   0  0  0  0  0  0  0  0  0  0  0  0
  1  2  1  0
  1 23  1  0
  1 24  1  0
  1 25  1  0
  2  3  1  0
  2  4  1  0
  2  6  1  0
  3 26  1  0
  3 27  1  0
  3 28  1  0
  4  5  3  0
  6  7  2  0
  6 11  1  0
  7  8  1  0
  7 29  1  0
  8  9  2  0
  8 18  1  0
  9 10  1  0
  9 30  1  0
 10 11  2  0
 10 12  1  0
 11 31  1  0
 12 13  1  0
 12 32  1  0
 12 33  1  0
 13 14  1  0
 13 17  1  0
 14 15  2  0
 14 34  1  0
 15 16  1  0
 16 17  2  0
 16 35  1  0
 18 19  1  0
 18 20  1  0
 18 21  1  0
 19 36  1  0
 19 37  1  0
 19 38  1  0
 20 39  1  0
 20 40  1  0
 20 41  1  0
 21 22  3  0
M  END
$$$$

     RDKit          2D

 20 21  0  0  0  0  0  0  0  0999 V2000
    2.0231   -1.7888    0.0000 C   0  0  0  0  0  0  0  0  0  0  0  0
    3.0069   -0.6565    0.0000 C   0  0  0  0  0  0  0  0  0  0  0  0
    2.5181    0.7617    0.0000 C   0  0  0  0  0  0  0  0  0  0  0  0
    1.0455    1.0474    0.0000 C   0  0  0  0  0  0  0  0  0  0  0  0
    0.0618   -0.0849    0.0000 C   0  0  0  0  0  0  0  0  0  0  0  0
    0.5506   -1.5031    0.0000 C   0  0  0  0  0  0  0  0  0  0  0  0
   -1.3191    0.5007    0.0000 C   0  0  0  0  0  0  0  0  0  0  0  0
   -1.1889    1.9951    0.0000 C   0  0  0  0  0  0  0  0  0  0  0  0
    0.2726    2.3329    0.0000 N   0  0  0  0  0  0  0  0  0  0  0  0
   -2.6046   -0.2722    0.0000 C   0  0  0  0  0  0  0  0  0  0  0  0
   -3.8902   -1.0452    0.0000 O   0  0  0  0  0  0  0  0  0  0  0  0
    2.5119   -3.2069    0.0000 H   0  0  0  0  0  0  0  0  0  0  0  0
    4.4794   -0.9422    0.0000 H   0  0  0  0  0  0  0  0  0  0  0  0
    3.5018    1.8940    0.0000 H   0  0  0  0  0  0  0  0  0  0  0  0
   -0.4331   -2.6354    0.0000 H   0  0  0  0  0  0  0  0  0  0  0  0
   -2.3212    2.9788    0.0000 H   0  0  0  0  0  0  0  0  0  0  0  0
    0.8583    3.7139    0.0000 H   0  0  0  0  0  0  0  0  0  0  0  0
   -1.8317   -1.5577    0.0000 H   0  0  0  0  0  0  0  0  0  0  0  0
   -3.3776    1.0133    0.0000 H   0  0  0  0  0  0  0  0  0  0  0  0
   -3.8635   -2.5449    0.0000 H   0  0  0  0  0  0  0  0  0  0  0  0
  1  2  2  0
  1  6  1  0
  1 12  1  0
  2  3  1  0
  2 13  1  0
  3  4  2  0
  3 14  1  0
  4  5  1  0
  4  9  1  0
  5  6  2  0
  5  7  1  0
  6 15  1  0
  7  8  2  0
  7 10  1  0
  8  9  1  0
  8 16  1  0
  9 17  1  0
 10 11  1  0
 10 18  1  0
 10 19  1  0
 11 20  1  0
M  END
$$$$

     RDKit          2D

 65 67  0  0  1  0  0  0  0  0999 V2000
   -5.1265    2.8793    0.0000 C   0  0  0  0  0  0  0  0  0  0  0  0
   -3.6424    2.6616    0.0000 C   0  0  0  0  0  0  0  0  0  0  0  0
   -2.1582    2.4440    0.0000 C   0  0  0  0  0  0  0  0  0  0  0  0
   -2.3759    0.9599    0.0000 C   0  0  0  0  0  0  0  0  0  0  0  0
   -0.6741    2.2263    0.0000 C   0  0  0  0  0  0  0  0  0  0  0  0
    0.1061    3.5075    0.0000 O   0  0  0  0  0  0  0  0  0  0  0  0
   -0.1205    0.8322    0.0000 O   0  0  0  0  0  0  0  0  0  0  0  0
    1.3636    0.6146    0.0000 C   0  0  0  0  0  0  0  0  0  0  0  0
    1.3202    2.1139    0.0000 C   0  0  0  0  0  0  0  0  0  0  0  0
    2.5970    2.9012    0.0000 C   0  0  0  0  0  0  0  0  0  0  0  0
    3.9172    2.1891    0.0000 C   0  0  0  0  0  0  0  0  0  0  0  0
    3.9606    0.6897    0.0000 C   0  0  0  0  0  0  0  0  0  0  0  0
    2.6838   -0.0976    0.0000 C   0  0  0  0  0  0  0  0  0  0  0  0
    2.7271   -1.5969    0.0000 C   0  0  0  0  0  0  0  0  0  0  0  0
    4.0473   -2.3091    0.0000 C   0  0  0  0  0  0  0  0  0  0  0  0
    5.3241   -1.5218    0.0000 C   0  0  0  0  0  0  0  0  0  0  0  0
    5.2808   -0.0224    0.0000 C   0  0  0  0  0  0  0  0  0  0  0  0
    3.1168   -3.4855    0.0000 C   0  0  0  0  0  0  0  0  0  0  0  0
    1.2430   -1.3793    0.0000 C   0  0  0  0  0  0  0  0  0  0  0  0
   -0.2411   -1.1616    0.0000 C   0  0  0  0  0  0  0  0  0  0  0  0
   -1.7252   -0.9440    0.0000 C   0  0  0  0  0  0  0  0  0  0  0  0
   -1.6819   -2.4434    0.0000 C   0  0  0  0  0  0  0  0  0  0  0  0
   -2.9587   -3.2306    0.0000 C   0  0  0  0  0  0  0  0  0  0  0  0
   -4.2789   -2.5185    0.0000 C   0  0  0  0  0  0  0  0  0  0  0  0
   -4.3222   -1.0191    0.0000 C   0  0  0  0  0  0  0  0  0  0  0  0
   -5.6424   -0.3070    0.0000 O   0  0  0  0  0  0  0  0  0  0  0  0
   -3.0454   -0.2319    0.0000 O   0  0  0  0  0  0  0  0  0  0  0  0
   -1.9617   -4.3513    0.0000 O   0  0  0  0  0  0  0  0  0  0  0  0
    3.5276    4.0776    0.0000 C   0  0  0  0  0  0  0  0  0  0  0  0
   -4.9088    4.3634    0.0000 H   0  0  0  0  0  0  0  0  0  0  0  0
   -5.3441    1.3952    0.0000 H   0  0  0  0  0  0  0  0  0  0  0  0
   -6.6106    3.0969    0.0000 H   0  0  0  0  0  0  0  0  0  0  0  0
   -3.4247    4.1458    0.0000 H   0  0  0  0  0  0  0  0  0  0  0  0
   -3.8767    1.8075    0.0000 H   0  0  0  0  0  0  0  0  0  0  0  0
   -1.9406    3.9281    0.0000 H   0  0  0  0  0  0  0  0  0  0  0  0
   -3.2614    0.9806    0.0000 H   0  0  0  0  0  0  0  0  0  0  0  0
   -1.0740    0.6026    0.0000 H   0  0  0  0  0  0  0  0  0  0  0  0
   -2.6790    0.2226    0.0000 H   0  0  0  0  0  0  0  0  0  0  0  0
    0.4125   -0.5454    0.0000 H   0  0  0  0  0  0  0  0  0  0  0  0
   -0.1785    2.1753    0.0000 H   0  0  0  0  0  0  0  0  0  0  0  0
    0.9407    3.5651    0.0000 H   0  0  0  0  0  0  0  0  0  0  0  0
    1.6000    4.0219    0.0000 H   0  0  0  0  0  0  0  0  0  0  0  0
    5.2805    2.8148    0.0000 H   0  0  0  0  0  0  0  0  0  0  0  0
    1.3205   -0.7233    0.0000 H   0  0  0  0  0  0  0  0  0  0  0  0
    2.0850   -2.9526    0.0000 H   0  0  0  0  0  0  0  0  0  0  0  0
    5.0443   -3.4298    0.0000 H   0  0  0  0  0  0  0  0  0  0  0  0
    6.6443   -2.2339    0.0000 H   0  0  0  0  0  0  0  0  0  0  0  0
    6.5576    0.7648    0.0000 H   0  0  0  0  0  0  0  0  0  0  0  0
    1.8356   -2.7053    0.0000 H   0  0  0  0  0  0  0  0  0  0  0  0
    4.2932   -4.4161    0.0000 H   0  0  0  0  0  0  0  0  0  0  0  0
    2.1862   -4.6620    0.0000 H   0  0  0  0  0  0  0  0  0  0  0  0
    1.0254   -2.8634    0.0000 H   0  0  0  0  0  0  0  0  0  0  0  0
    1.0951    0.1134    0.0000 H   0  0  0  0  0  0  0  0  0  0  0  0
   -0.3891    0.3311    0.0000 H   0  0  0  0  0  0  0  0  0  0  0  0
   -0.2762   -2.6612    0.0000 H   0  0  0  0  0  0  0  0  0  0  0  0
   -1.0831    0.4116    0.0000 H   0  0  0  0  0  0  0  0  0  0  0  0
   -1.1283   -3.8375    0.0000 H   0  0  0  0  0  0  0  0  0  0  0  0
   -0.1868   -2.3216    0.0000 H   0  0  0  0  0  0  0  0  0  0  0  0
   -3.8892   -4.4071    0.0000 H   0  0  0  0  0  0  0  0  0  0  0  0
   -5.7630   -2.3008    0.0000 H   0  0  0  0  0  0  0  0  0  0  0  0
   -4.7509   -3.9423    0.0000 H   0  0  0  0  0  0  0  0  0  0  0  0
   -2.4337   -5.7751    0.0000 H   0  0  0  0  0  0  0  0  0  0  0  0
    4.8087    3.2974    0.0000 H   0  0  0  0  0  0  0  0  0  0  0  0
    2.3511    5.0082    0.0000 H   0  0  0  0  0  0  0  0  0  0  0  0
    4.4581    5.2541    0.0000 H   0  0  0  0  0  0  0  0  0  0  0  0
  1  2  1  0
  1 30  1  0
  1 31  1  0
  1 32  1  0
  2 33  1  0
  2 34  1  0
  3  5  1  0
  3 35  1  6
  3  4  1  0
  3  2  1  0
  4 36  1  0
  4 37  1  0
  4 38  1  0
  5  6  2  0
  5  7  1  0
  8  9  1  0
  8 13  1  0
  8 39  1  6
  8  7  1  0
  9 10  1  0
  9 40  1  0
  9 41  1  0
 10 11  1  0
 10 29  1  0
 10 42  1  6
 11 12  2  0
 11 43  1  0
 12 13  1  0
 12 17  1  0
 13 14  1  0
 13 44  1  6
 14 15  1  0
 14 45  1  1
 14 19  1  0
 15 16  1  0
 15 18  1  0
 15 46  1  1
 16 17  2  0
 16 47  1  0
 17 48  1  0
 18 49  1  0
 18 50  1  0
 18 51  1  0
 19 20  1  0
 19 52  1  0
 19 53  1  0
 20 21  1  0
 20 54  1  0
 20 55  1  0
 21 22  1  0
 21 27  1  0
 21 56  1  1
 22 23  1  0
 22 57  1  0
 22 58  1  0
 23 24  1  0
 23 28  1  0
 23 59  1  6
 24 25  1  0
 24 60  1  0
 24 61  1  0
 25 26  2  0
 25 27  1  0
 28 62  1  0
 29 63  1  0
 29 64  1  0
 29 65  1  0
M  END
$$$$

     RDKit          2D

 32 31  0  0  0  0  0  0  0  0999 V2000
    4.4589   -0.9285    0.0000 C   0  0  0  0  0  0  0  0  0  0  0  0
    3.4372   -2.0268    0.0000 C   0  0  0  0  0  0  0  0  0  0  0  0
    1.9752   -1.6911    0.0000 C   0  0  0  0  0  0  0  0  0  0  0  0
    1.5349   -0.2572    0.0000 C   0  0  0  0  0  0  0  0  0  0  0  0
    2.5566    0.8410    0.0000 C   0  0  0  0  0  0  0  0  0  0  0  0
    4.0186    0.5054    0.0000 C   0  0  0  0  0  0  0  0  0  0  0  0
    2.1163    2.2750    0.0000 C   0  0  0  0  0  0  0  0  0  0  0  0
    0.6544    2.6106    0.0000 C   0  0  0  0  0  0  0  0  0  0  0  0
   -0.3673    1.5124    0.0000 C   0  0  0  0  0  0  0  0  0  0  0  0
    0.0730    0.0784    0.0000 C   0  0  0  0  0  0  0  0  0  0  0  0
   -0.9487   -1.0198    0.0000 N   0  0  0  0  0  0  0  0  0  0  0  0
   -2.4107   -0.6842    0.0000 C   0  0  0  0  0  0  0  0  0  0  0  0
   -3.8726   -0.3485    0.0000 C   0  0  0  0  0  0  0  0  0  0  0  0
   -5.3346   -0.0128    0.0000 N   0  0  0  0  0  0  0  0  0  0  0  0
   -0.7500    5.0446    0.0000 Cl  0  0  0  0  0  0  0  0  0  0  0  0
   -0.7500    6.0446    0.0000 Cl  0  0  0  0  0  0  0  0  0  0  0  0
    5.9208   -1.2642    0.0000 H   0  0  0  0  0  0  0  0  0  0  0  0
    3.8775   -3.4607    0.0000 H   0  0  0  0  0  0  0  0  0  0  0  0
    0.9535   -2.7894    0.0000 H   0  0  0  0  0  0  0  0  0  0  0  0
    5.0402    1.6036    0.0000 H   0  0  0  0  0  0  0  0  0  0  0  0
    3.1380    3.3732    0.0000 H   0  0  0  0  0  0  0  0  0  0  0  0
    0.2141    4.0446    0.0000 H   0  0  0  0  0  0  0  0  0  0  0  0
   -1.8293    1.8480    0.0000 H   0  0  0  0  0  0  0  0  0  0  0  0
   -0.5084   -2.4537    0.0000 H   0  0  0  0  0  0  0  0  0  0  0  0
   -2.0750    0.7778    0.0000 H   0  0  0  0  0  0  0  0  0  0  0  0
   -2.7463   -2.1461    0.0000 H   0  0  0  0  0  0  0  0  0  0  0  0
   -4.2083   -1.8104    0.0000 H   0  0  0  0  0  0  0  0  0  0  0  0
   -3.5370    1.1135    0.0000 H   0  0  0  0  0  0  0  0  0  0  0  0
   -5.7749    1.4211    0.0000 H   0  0  0  0  0  0  0  0  0  0  0  0
   -6.3563   -1.1111    0.0000 H   0  0  0  0  0  0  0  0  0  0  0  0
    0.7500    5.0446    0.0000 H   0  0  0  0  0  0  0  0  0  0  0  0
    0.7500    6.0446    0.0000 H   0  0  0  0  0  0  0  0  0  0  0  0
  1  2  2  0
  1  6  1  0
  1 17  1  0
  2  3  1  0
  2 18  1  0
  3  4  2  0
  3 19  1  0
  4  5  1  0
  4 10  1  0
  5  6  2  0
  5  7  1  0
  6 20  1  0
  7  8  2  0
  7 21  1  0
  8  9  1  0
  8 22  1  0
  9 10  2  0
  9 23  1  0
 10 11  1  0
 11 12  1  0
 11 24  1  0
 12 13  1  0
 12 25  1  0
 12 26  1  0
 13 14  1  0
 13 27  1  0
 13 28  1  0
 14 29  1  0
 14 30  1  0
 15 31  1  0
 16 32  1  0
M  END
$$$$

     RDKit          2D

 24 26  0  0  0  0  0  0  0  0999 V2000
   -1.3951   -2.6414    0.0000 C   0  0  0  0  0  0  0  0  0  0  0  0
   -0.0687   -1.9408    0.0000 C   0  0  0  0  0  0  0  0  0  0  0  0
   -0.0123   -0.4419    0.0000 C   0  0  0  0  0  0  0  0  0  0  0  0
   -1.2822    0.3564    0.0000 C   0  0  0  0  0  0  0  0  0  0  0  0
   -2.6085   -0.3442    0.0000 C   0  0  0  0  0  0  0  0  0  0  0  0
   -2.6650   -1.8431    0.0000 C   0  0  0  0  0  0  0  0  0  0  0  0
   -3.6847    0.7008    0.0000 O   0  0  0  0  0  0  0  0  0  0  0  0
   -3.0235    2.0472    0.0000 C   0  0  0  0  0  0  0  0  0  0  0  0
   -1.5387    1.8344    0.0000 O   0  0  0  0  0  0  0  0  0  0  0  0
   -4.4316    2.5640    0.0000 F   0  0  0  0  0  0  0  0  0  0  0  0
   -2.6566    3.5016    0.0000 F   0  0  0  0  0  0  0  0  0  0  0  0
    1.3140    0.2587    0.0000 C   0  0  0  0  0  0  0  0  0  0  0  0
    1.5268    1.7435    0.0000 C   0  0  0  0  0  0  0  0  0  0  0  0
    3.0048    2.0000    0.0000 N   0  0  0  0  0  0  0  0  0  0  0  0
    3.7054    0.6737    0.0000 C   0  0  0  0  0  0  0  0  0  0  0  0
    2.6604   -0.4025    0.0000 C   0  0  0  0  0  0  0  0  0  0  0  0
    2.9169   -1.8804    0.0000 C   0  0  0  0  0  0  0  0  0  0  0  0
    3.1733   -3.3583    0.0000 N   0  0  0  0  0  0  0  0  0  0  0  0
   -1.4515   -4.1404    0.0000 H   0  0  0  0  0  0  0  0  0  0  0  0
    1.2012   -2.7392    0.0000 H   0  0  0  0  0  0  0  0  0  0  0  0
   -3.9913   -2.5437    0.0000 H   0  0  0  0  0  0  0  0  0  0  0  0
    0.4507    2.7885    0.0000 H   0  0  0  0  0  0  0  0  0  0  0  0
    3.6660    3.3464    0.0000 H   0  0  0  0  0  0  0  0  0  0  0  0
    5.1902    0.4609    0.0000 H   0  0  0  0  0  0  0  0  0  0  0  0
  1  2  2  0
  1  6  1  0
  1 19  1  0
  2  3  1  0
  2 20  1  0
  3  4  2  0
  3 12  1  0
  4  5  1  0
  4  9  1  0
  5  6  2  0
  5  7  1  0
  6 21  1  0
  7  8  1  0
  8  9  1  0
  8 10  1  0
  8 11  1  0
 12 13  2  0
 12 16  1  0
 13 14  1  0
 13 22  1  0
 14 15  1  0
 14 23  1  0
 15 16  2  0
 15 24  1  0
 16 17  1  0
 17 18  3  0
M  END
$$$$

     RDKit          2D

 37 38  0  0  0  0  0  0  0  0999 V2000
    5.0691   -0.5620    0.0000 C   0  0  0  0  0  0  0  0  0  0  0  0
    3.9200   -1.5262    0.0000 C   0  0  0  0  0  0  0  0  0  0  0  0
    2.5105   -1.0132    0.0000 C   0  0  0  0  0  0  0  0  0  0  0  0
    2.2500    0.4641    0.0000 C   0  0  0  0  0  0  0  0  0  0  0  0
    3.3991    1.4282    0.0000 C   0  0  0  0  0  0  0  0  0  0  0  0
    4.8086    0.9152    0.0000 C   0  0  0  0  0  0  0  0  0  0  0  0
    1.5000    1.7631    0.0000 N   0  0  0  0  0  0  0  0  0  0  0  0
    0.0000    1.7631    0.0000 C   0  0  0  0  0  0  0  0  0  0  0  0
   -1.5000    1.7631    0.0000 N   0  0  0  0  0  0  0  0  0  0  0  0
   -2.2500    0.4641    0.0000 C   0  0  0  0  0  0  0  0  0  0  0  0
   -3.3991    1.4282    0.0000 C   0  0  0  0  0  0  0  0  0  0  0  0
   -4.8086    0.9152    0.0000 C   0  0  0  0  0  0  0  0  0  0  0  0
   -5.0691   -0.5620    0.0000 C   0  0  0  0  0  0  0  0  0  0  0  0
   -3.9200   -1.5262    0.0000 C   0  0  0  0  0  0  0  0  0  0  0  0
   -2.5105   -1.0132    0.0000 C   0  0  0  0  0  0  0  0  0  0  0  0
    6.4786   -0.0490    0.0000 H   0  0  0  0  0  0  0  0  0  0  0  0
    5.8191   -1.8610    0.0000 H   0  0  0  0  0  0  0  0  0  0  0  0
    5.0691   -2.4904    0.0000 H   0  0  0  0  0  0  0  0  0  0  0  0
    3.1700   -2.8252    0.0000 H   0  0  0  0  0  0  0  0  0  0  0  0
    2.2500   -2.4904    0.0000 H   0  0  0  0  0  0  0  0  0  0  0  0
    1.0105   -1.0132    0.0000 H   0  0  0  0  0  0  0  0  0  0  0  0
    0.8405   -0.0490    0.0000 H   0  0  0  0  0  0  0  0  0  0  0  0
    2.2500    2.3924    0.0000 H   0  0  0  0  0  0  0  0  0  0  0  0
    4.1491    2.7273    0.0000 H   0  0  0  0  0  0  0  0  0  0  0  0
    5.0691    2.3924    0.0000 H   0  0  0  0  0  0  0  0  0  0  0  0
    6.3086    0.9152    0.0000 H   0  0  0  0  0  0  0  0  0  0  0  0
   -0.8405   -0.0490    0.0000 H   0  0  0  0  0  0  0  0  0  0  0  0
   -4.1491    2.7273    0.0000 H   0  0  0  0  0  0  0  0  0  0  0  0
   -2.2500    2.3924    0.0000 H   0  0  0  0  0  0  0  0  0  0  0  0
   -6.3086    0.9152    0.0000 H   0  0  0  0  0  0  0  0  0  0  0  0
   -5.0691    2.3924    0.0000 H   0  0  0  0  0  0  0  0  0  0  0  0
   -5.8191   -1.8610    0.0000 H   0  0  0  0  0  0  0  0  0  0  0  0
   -6.4786   -0.0490    0.0000 H   0  0  0  0  0  0  0  0  0  0  0  0
   -3.1700   -2.8252    0.0000 H   0  0  0  0  0  0  0  0  0  0  0  0
   -5.0691   -2.4904    0.0000 H   0  0  0  0  0  0  0  0  0  0  0  0
   -1.0105   -1.0132    0.0000 H   0  0  0  0  0  0  0  0  0  0  0  0
   -2.2500   -2.4904    0.0000 H   0  0  0  0  0  0  0  0  0  0  0  0
  1  2  1  0
  1  6  1  0
  1 16  1  0
  1 17  1  0
  2  3  1  0
  2 18  1  0
  2 19  1  0
  3  4  1  0
  3 20  1  0
  3 21  1  0
  4  5  1  0
  4  7  1  0
  4 22  1  0
  5  6  1  0
  5 23  1  0
  5 24  1  0
  6 25  1  0
  6 26  1  0
  7  8  2  0
  8  9  2  0
  9 10  1  0
 10 11  1  0
 10 15  1  0
 10 27  1  0
 11 12  1  0
 11 28  1  0
 11 29  1  0
 12 13  1  0
 12 30  1  0
 12 31  1  0
 13 14  1  0
 13 32  1  0
 13 33  1  0
 14 15  1  0
 14 34  1  0
 14 35  1  0
 15 36  1  0
 15 37  1  0
M  END
$$$$

     RDKit          2D

 27 31  0  0  1  0  0  0  0  0999 V2000
   -0.8707    0.0085    0.0000 C   0  0  0  0  0  0  0  0  0  0  0  0
   -1.7576    1.2182    0.0000 C   0  0  0  0  0  0  0  0  0  0  0  0
   -0.3290    0.7608    0.0000 C   0  0  0  0  0  0  0  0  0  0  0  0
   -0.3226   -0.7392    0.0000 C   0  0  0  0  0  0  0  0  0  0  0  0
   -1.7472   -1.2088    0.0000 C   0  0  0  0  0  0  0  0  0  0  0  0
   -3.1757   -0.7514    0.0000 C   0  0  0  0  0  0  0  0  0  0  0  0
   -3.1821    0.7486    0.0000 C   0  0  0  0  0  0  0  0  0  0  0  0
   -4.4780   -0.0069    0.0000 O   0  0  0  0  0  0  0  0  0  0  0  0
    1.1060   -1.1966    0.0000 C   0  0  0  0  0  0  0  0  0  0  0  0
    2.5306   -0.7270    0.0000 C   0  0  0  0  0  0  0  0  0  0  0  0
    2.5241    0.7730    0.0000 C   0  0  0  0  0  0  0  0  0  0  0  0
    1.0956    1.2304    0.0000 C   0  0  0  0  0  0  0  0  0  0  0  0
    1.9825    0.0207    0.0000 C   0  0  0  0  0  0  0  0  0  0  0  0
    3.3852   -0.5107    0.0000 Cl  0  0  0  0  0  0  0  0  0  0  0  0
    3.3806    0.5641    0.0000 Cl  0  0  0  0  0  0  0  0  0  0  0  0
    1.5530    2.6590    0.0000 Cl  0  0  0  0  0  0  0  0  0  0  0  0
    3.6168    1.8007    0.0000 Cl  0  0  0  0  0  0  0  0  0  0  0  0
    3.6319   -1.7453    0.0000 Cl  0  0  0  0  0  0  0  0  0  0  0  0
    1.5756   -2.6212    0.0000 Cl  0  0  0  0  0  0  0  0  0  0  0  0
   -0.1684    0.3857    0.0000 H   0  0  0  0  0  0  0  0  0  0  0  0
    0.4568   -0.6900    0.0000 H   0  0  0  0  0  0  0  0  0  0  0  0
   -1.3001    2.6468    0.0000 H   0  0  0  0  0  0  0  0  0  0  0  0
   -0.3354    2.2608    0.0000 H   0  0  0  0  0  0  0  0  0  0  0  0
   -0.3162   -2.2392    0.0000 H   0  0  0  0  0  0  0  0  0  0  0  0
   -1.2775   -2.6334    0.0000 H   0  0  0  0  0  0  0  0  0  0  0  0
   -3.7800   -2.1243    0.0000 H   0  0  0  0  0  0  0  0  0  0  0  0
   -3.7981    2.1163    0.0000 H   0  0  0  0  0  0  0  0  0  0  0  0
  1  2  1  0
  1  5  1  0
  1 20  1  0
  1 21  1  0
  2  3  1  0
  2  7  1  0
  2 22  1  1
  3  4  1  0
  3 12  1  0
  3 23  1  1
  4  5  1  0
  4  9  1  0
  4 24  1  1
  5  6  1  0
  5 25  1  1
  6  7  1  0
  6  8  1  0
  6 26  1  6
  7  8  1  0
  7 27  1  6
  9 10  1  0
  9 13  1  0
  9 19  1  6
 10 11  2  0
 10 18  1  0
 11 12  1  0
 11 17  1  0
 12 13  1  0
 12 16  1  1
 13 14  1  0
 13 15  1  0
M  END
$$$$

     RDKit          2D

 30 32  0  0  1  0  0  0  0  0999 V2000
    0.2034    2.3507    0.0000 C   0  0  0  0  0  0  0  0  0  0  0  0
    1.1975    1.2273    0.0000 C   0  0  0  0  0  0  0  0  0  0  0  0
    0.4363   -0.0652    0.0000 S   0  0  0  0  0  0  0  0  0  0  0  0
   -1.0282    0.2593    0.0000 C   0  0  0  0  0  0  0  0  0  0  0  0
   -2.1515   -0.7347    0.0000 C   0  0  0  0  0  0  0  0  0  0  0  0
   -1.8523   -2.2046    0.0000 C   0  0  0  0  0  0  0  0  0  0  0  0
   -1.5531   -3.6744    0.0000 N   0  0  0  0  0  0  0  0  0  0  0  0
   -3.5740   -0.2589    0.0000 N   0  0  0  0  0  0  0  0  0  0  0  0
   -4.7951   -1.1301    0.0000 C   0  0  0  0  0  0  0  0  0  0  0  0
   -6.0010   -0.2379    0.0000 C   0  0  0  0  0  0  0  0  0  0  0  0
   -5.5252    1.1846    0.0000 N   0  0  0  0  0  0  0  0  0  0  0  0
   -4.0252    1.1716    0.0000 C   0  0  0  0  0  0  0  0  0  0  0  0
   -1.1721    1.7524    0.0000 S   0  0  0  0  0  0  0  0  0  0  0  0
    2.4034    0.3352    0.0000 C   0  0  0  0  0  0  0  0  0  0  0  0
    2.2337   -1.1551    0.0000 C   0  0  0  0  0  0  0  0  0  0  0  0
    3.4396   -2.0473    0.0000 C   0  0  0  0  0  0  0  0  0  0  0  0
    4.8151   -1.4490    0.0000 C   0  0  0  0  0  0  0  0  0  0  0  0
    4.9848    0.0414    0.0000 C   0  0  0  0  0  0  0  0  0  0  0  0
    3.7789    0.9335    0.0000 C   0  0  0  0  0  0  0  0  0  0  0  0
    6.0210   -2.3411    0.0000 Cl  0  0  0  0  0  0  0  0  0  0  0  0
    0.8582   -1.7534    0.0000 Cl  0  0  0  0  0  0  0  0  0  0  0  0
    1.4245    3.2219    0.0000 H   0  0  0  0  0  0  0  0  0  0  0  0
   -0.5353    3.6561    0.0000 H   0  0  0  0  0  0  0  0  0  0  0  0
    2.2108    2.3334    0.0000 H   0  0  0  0  0  0  0  0  0  0  0  0
   -4.8081   -2.6300    0.0000 H   0  0  0  0  0  0  0  0  0  0  0  0
   -7.4315   -0.6891    0.0000 H   0  0  0  0  0  0  0  0  0  0  0  0
   -3.1331    2.3775    0.0000 H   0  0  0  0  0  0  0  0  0  0  0  0
    3.2699   -3.5376    0.0000 H   0  0  0  0  0  0  0  0  0  0  0  0
    6.3603    0.6396    0.0000 H   0  0  0  0  0  0  0  0  0  0  0  0
    3.9485    2.4239    0.0000 H   0  0  0  0  0  0  0  0  0  0  0  0
  1  2  1  0
  1 13  1  0
  1 22  1  0
  1 23  1  0
  2  3  1  0
  2 24  1  6
  2 14  1  0
  3  4  1  0
  4  5  2  0
  4 13  1  0
  5  6  1  0
  5  8  1  0
  6  7  3  0
  8  9  1  0
  8 12  1  0
  9 10  2  0
  9 25  1  0
 10 11  1  0
 10 26  1  0
 11 12  2  0
 12 27  1  0
 14 15  2  0
 14 19  1  0
 15 16  1  0
 15 21  1  0
 16 17  2  0
 16 28  1  0
 17 18  1  0
 17 20  1  0
 18 19  2  0
 18 29  1  0
 19 30  1  0
M  END
$$$$

     RDKit          2D

 43 44  0  0  0  0  0  0  0  0999 V2000
   -2.4565   -2.5377    0.0000 C   0  0  0  0  0  0  0  0  0  0  0  0
   -2.6211   -1.0468    0.0000 C   0  0  0  0  0  0  0  0  0  0  0  0
   -2.7857    0.4441    0.0000 C   0  0  0  0  0  0  0  0  0  0  0  0
   -4.1120   -1.2114    0.0000 C   0  0  0  0  0  0  0  0  0  0  0  0
   -1.1302   -0.8822    0.0000 C   0  0  0  0  0  0  0  0  0  0  0  0
    0.3608   -0.7175    0.0000 C   0  0  0  0  0  0  0  0  0  0  0  0
    1.8517   -0.5529    0.0000 C   0  0  0  0  0  0  0  0  0  0  0  0
    3.3427   -0.3883    0.0000 C   0  0  0  0  0  0  0  0  0  0  0  0
    4.2307   -1.5971    0.0000 C   0  0  0  0  0  0  0  0  0  0  0  0
    5.7216   -1.4325    0.0000 C   0  0  0  0  0  0  0  0  0  0  0  0
    6.3245   -0.0590    0.0000 C   0  0  0  0  0  0  0  0  0  0  0  0
    5.4365    1.1499    0.0000 C   0  0  0  0  0  0  0  0  0  0  0  0
    3.9455    0.9853    0.0000 C   0  0  0  0  0  0  0  0  0  0  0  0
    7.8155    0.1057    0.0000 Cl  0  0  0  0  0  0  0  0  0  0  0  0
   -1.2948    0.6088    0.0000 C   0  0  0  0  0  0  0  0  0  0  0  0
   -1.4594    2.0997    0.0000 N   0  0  0  0  0  0  0  0  0  0  0  0
   -2.7624    2.8429    0.0000 C   0  0  0  0  0  0  0  0  0  0  0  0
   -2.4582    4.3117    0.0000 N   0  0  0  0  0  0  0  0  0  0  0  0
   -0.9673    4.4763    0.0000 C   0  0  0  0  0  0  0  0  0  0  0  0
   -0.3500    3.1093    0.0000 N   0  0  0  0  0  0  0  0  0  0  0  0
   -0.9655   -2.3731    0.0000 O   0  0  0  0  0  0  0  0  0  0  0  0
   -3.9162   -2.8829    0.0000 H   0  0  0  0  0  0  0  0  0  0  0  0
   -1.6665   -2.6446    0.0000 H   0  0  0  0  0  0  0  0  0  0  0  0
   -2.4748   -4.0376    0.0000 H   0  0  0  0  0  0  0  0  0  0  0  0
   -4.2856    0.4625    0.0000 H   0  0  0  0  0  0  0  0  0  0  0  0
   -1.3789    0.9647    0.0000 H   0  0  0  0  0  0  0  0  0  0  0  0
   -2.9504    1.9351    0.0000 H   0  0  0  0  0  0  0  0  0  0  0  0
   -4.4572    0.2483    0.0000 H   0  0  0  0  0  0  0  0  0  0  0  0
   -4.1304   -2.7113    0.0000 H   0  0  0  0  0  0  0  0  0  0  0  0
   -5.6030   -1.3761    0.0000 H   0  0  0  0  0  0  0  0  0  0  0  0
    0.3791    0.7824    0.0000 H   0  0  0  0  0  0  0  0  0  0  0  0
    0.5254   -2.2085    0.0000 H   0  0  0  0  0  0  0  0  0  0  0  0
    1.6871    0.9380    0.0000 H   0  0  0  0  0  0  0  0  0  0  0  0
    2.0164   -2.0438    0.0000 H   0  0  0  0  0  0  0  0  0  0  0  0
    3.6278   -2.9706    0.0000 H   0  0  0  0  0  0  0  0  0  0  0  0
    6.6097   -2.6414    0.0000 H   0  0  0  0  0  0  0  0  0  0  0  0
    6.0394    2.5234    0.0000 H   0  0  0  0  0  0  0  0  0  0  0  0
    3.0575    2.1941    0.0000 H   0  0  0  0  0  0  0  0  0  0  0  0
    0.1650    0.9539    0.0000 H   0  0  0  0  0  0  0  0  0  0  0  0
   -2.7813    0.8098    0.0000 H   0  0  0  0  0  0  0  0  0  0  0  0
   -4.1295    2.2256    0.0000 H   0  0  0  0  0  0  0  0  0  0  0  0
   -0.2242    5.7793    0.0000 H   0  0  0  0  0  0  0  0  0  0  0  0
   -1.7758   -3.6354    0.0000 H   0  0  0  0  0  0  0  0  0  0  0  0
  1  2  1  0
  1 22  1  0
  1 23  1  0
  1 24  1  0
  2  3  1  0
  2  4  1  0
  2  5  1  0
  3 25  1  0
  3 26  1  0
  3 27  1  0
  4 28  1  0
  4 29  1  0
  4 30  1  0
  5  6  1  0
  5 15  1  0
  5 21  1  1
  6  7  1  0
  6 31  1  0
  6 32  1  0
  7  8  1  0
  7 33  1  0
  7 34  1  0
  8  9  2  0
  8 13  1  0
  9 10  1  0
  9 35  1  0
 10 11  2  0
 10 36  1  0
 11 12  1  0
 11 14  1  0
 12 13  2  0
 12 37  1  0
 13 38  1  0
 15 16  1  0
 15 39  1  0
 15 40  1  0
 16 17  1  0
 16 20  1  0
 17 18  2  0
 17 41  1  0
 18 19  1  0
 19 20  2  0
 19 42  1  0
 21 43  1  0
M  END
$$$$

     RDKit          2D

 39 39  0  0  0  0  0  0  0  0999 V2000
   -3.7358   -2.3100    0.0000 C   0  0  0  0  0  0  0  0  0  0  0  0
   -2.8386   -1.1080    0.0000 C   0  0  0  0  0  0  0  0  0  0  0  0
   -1.9414    0.0941    0.0000 C   0  0  0  0  0  0  0  0  0  0  0  0
   -3.1435    0.9913    0.0000 C   0  0  0  0  0  0  0  0  0  0  0  0
   -4.3456    1.8885    0.0000 C   0  0  0  0  0  0  0  0  0  0  0  0
   -0.7393   -0.8031    0.0000 N   0  0  0  0  0  0  0  0  0  0  0  0
    0.6387   -0.2107    0.0000 C   0  0  0  0  0  0  0  0  0  0  0  0
    0.8147    1.2790    0.0000 C   0  0  0  0  0  0  0  0  0  0  0  0
    2.1928    1.8714    0.0000 C   0  0  0  0  0  0  0  0  0  0  0  0
    3.3949    0.9742    0.0000 C   0  0  0  0  0  0  0  0  0  0  0  0
    3.2189   -0.5155    0.0000 C   0  0  0  0  0  0  0  0  0  0  0  0
    1.8408   -1.1079    0.0000 C   0  0  0  0  0  0  0  0  0  0  0  0
    1.6649   -2.5975    0.0000 N   0  0  0  0  0  0  0  0  0  0  0  0
    2.8669   -3.4948    0.0000 O   0  0  0  0  0  0  0  0  0  0  0  0
    0.2868   -3.1900    0.0000 O   0  0  0  0  0  0  0  0  0  0  0  0
    4.4210   -1.4127    0.0000 C   0  0  0  0  0  0  0  0  0  0  0  0
    4.7729    1.5666    0.0000 C   0  0  0  0  0  0  0  0  0  0  0  0
   -0.3874    2.1762    0.0000 N   0  0  0  0  0  0  0  0  0  0  0  0
   -1.7654    1.5838    0.0000 O   0  0  0  0  0  0  0  0  0  0  0  0
   -0.2114    3.6658    0.0000 O   0  0  0  0  0  0  0  0  0  0  0  0
   -4.9379   -1.4128    0.0000 H   0  0  0  0  0  0  0  0  0  0  0  0
   -2.5337   -3.2073    0.0000 H   0  0  0  0  0  0  0  0  0  0  0  0
   -4.6330   -3.5121    0.0000 H   0  0  0  0  0  0  0  0  0  0  0  0
   -3.6077   -0.6686    0.0000 H   0  0  0  0  0  0  0  0  0  0  0  0
   -1.7549   -2.1450    0.0000 H   0  0  0  0  0  0  0  0  0  0  0  0
   -0.9043    1.1779    0.0000 H   0  0  0  0  0  0  0  0  0  0  0  0
   -2.3995    2.2938    0.0000 H   0  0  0  0  0  0  0  0  0  0  0  0
   -3.7558    0.3514    0.0000 H   0  0  0  0  0  0  0  0  0  0  0  0
   -3.4483    3.0906    0.0000 H   0  0  0  0  0  0  0  0  0  0  0  0
   -5.2428    0.6865    0.0000 H   0  0  0  0  0  0  0  0  0  0  0  0
   -5.5476    2.7858    0.0000 H   0  0  0  0  0  0  0  0  0  0  0  0
   -0.7324   -2.3031    0.0000 H   0  0  0  0  0  0  0  0  0  0  0  0
    2.3687    3.3610    0.0000 H   0  0  0  0  0  0  0  0  0  0  0  0
    3.5237   -2.6148    0.0000 H   0  0  0  0  0  0  0  0  0  0  0  0
    5.2610   -0.5349    0.0000 H   0  0  0  0  0  0  0  0  0  0  0  0
    5.6230   -2.3099    0.0000 H   0  0  0  0  0  0  0  0  0  0  0  0
    5.3853    0.5172    0.0000 H   0  0  0  0  0  0  0  0  0  0  0  0
    4.1805    2.9446    0.0000 H   0  0  0  0  0  0  0  0  0  0  0  0
    6.1510    2.1590    0.0000 H   0  0  0  0  0  0  0  0  0  0  0  0
  1  2  1  0
  1 21  1  0
  1 22  1  0
  1 23  1  0
  2  3  1  0
  2 24  1  0
  2 25  1  0
  3  4  1  0
  3  6  1  0
  3 26  1  0
  4  5  1  0
  4 27  1  0
  4 28  1  0
  5 29  1  0
  5 30  1  0
  5 31  1  0
  6  7  1  0
  6 32  1  0
  7  8  2  0
  7 12  1  0
  8  9  1  0
  8 18  1  0
  9 10  2  0
  9 33  1  0
 10 11  1  0
 10 17  1  0
 11 12  2  0
 11 16  1  0
 12 13  1  0
 13 14  2  0
 13 15  1  0
 16 34  1  0
 16 35  1  0
 16 36  1  0
 17 37  1  0
 17 38  1  0
 17 39  1  0
 18 19  2  0
 18 20  1  0
M  CHG  4  13   1  15  -1  18   1  20  -1
M  END
$$$$

     RDKit          2D

 70 73  0  0  1  0  0  0  0  0999 V2000
    0.2551   -6.7505    0.0000 C   0  0  0  0  0  0  0  0  0  0  0  0
    0.7425   -5.3319    0.0000 C   0  0  0  0  0  0  0  0  0  0  0  0
   -0.7392   -5.0982    0.0000 C   0  0  0  0  0  0  0  0  0  0  0  0
   -1.2777   -3.6982    0.0000 C   0  0  0  0  0  0  0  0  0  0  0  0
   -0.3346   -2.5319    0.0000 C   0  0  0  0  0  0  0  0  0  0  0  0
    1.1471   -2.7655    0.0000 C   0  0  0  0  0  0  0  0  0  0  0  0
    1.6856   -4.1655    0.0000 O   0  0  0  0  0  0  0  0  0  0  0  0
    1.1199   -1.2658    0.0000 O   0  0  0  0  0  0  0  0  0  0  0  0
    2.4052   -0.4923    0.0000 C   0  0  0  0  0  0  0  0  0  0  0  0
    3.8774   -0.2051    0.0000 C   0  0  0  0  0  0  0  0  0  0  0  0
    4.3648    1.2135    0.0000 C   0  0  0  0  0  0  0  0  0  0  0  0
    3.3799    2.3449    0.0000 C   0  0  0  0  0  0  0  0  0  0  0  0
    1.9077    2.0577    0.0000 C   0  0  0  0  0  0  0  0  0  0  0  0
    1.4203    0.6391    0.0000 C   0  0  0  0  0  0  0  0  0  0  0  0
   -0.0519    0.3518    0.0000 C   0  0  0  0  0  0  0  0  0  0  0  0
   -1.0368    1.4832    0.0000 C   0  0  0  0  0  0  0  0  0  0  0  0
   -0.5494    2.9018    0.0000 C   0  0  0  0  0  0  0  0  0  0  0  0
    0.9228    3.1891    0.0000 C   0  0  0  0  0  0  0  0  0  0  0  0
    1.4102    4.6077    0.0000 O   0  0  0  0  0  0  0  0  0  0  0  0
   -1.5343    4.0332    0.0000 C   0  0  0  0  0  0  0  0  0  0  0  0
   -1.0469    5.4518    0.0000 O   0  0  0  0  0  0  0  0  0  0  0  0
   -3.0065    3.7460    0.0000 C   0  0  0  0  0  0  0  0  0  0  0  0
   -3.4939    2.3274    0.0000 C   0  0  0  0  0  0  0  0  0  0  0  0
   -2.5090    1.1960    0.0000 C   0  0  0  0  0  0  0  0  0  0  0  0
   -2.9964   -0.2226    0.0000 O   0  0  0  0  0  0  0  0  0  0  0  0
   -4.9661    2.0402    0.0000 C   0  0  0  0  0  0  0  0  0  0  0  0
   -5.9510    3.1716    0.0000 C   0  0  0  0  0  0  0  0  0  0  0  0
   -5.4636    4.5902    0.0000 C   0  0  0  0  0  0  0  0  0  0  0  0
   -3.9914    4.8774    0.0000 C   0  0  0  0  0  0  0  0  0  0  0  0
   -5.4535    0.6216    0.0000 O   0  0  0  0  0  0  0  0  0  0  0  0
   -6.9258    0.3344    0.0000 C   0  0  0  0  0  0  0  0  0  0  0  0
   -0.5393   -1.0668    0.0000 O   0  0  0  0  0  0  0  0  0  0  0  0
    5.3080    2.3798    0.0000 C   0  0  0  0  0  0  0  0  0  0  0  0
    4.9442    3.8350    0.0000 O   0  0  0  0  0  0  0  0  0  0  0  0
    6.7897    2.1462    0.0000 C   0  0  0  0  0  0  0  0  0  0  0  0
    8.2714    1.9125    0.0000 O   0  0  0  0  0  0  0  0  0  0  0  0
    5.6772    0.4872    0.0000 O   0  0  0  0  0  0  0  0  0  0  0  0
   -2.2626   -2.5668    0.0000 N   0  0  0  0  0  0  0  0  0  0  0  0
   -2.2115   -5.3855    0.0000 O   0  0  0  0  0  0  0  0  0  0  0  0
   -0.7500    7.2960    0.0000 Cl  0  0  0  0  0  0  0  0  0  0  0  0
   -0.5248   -6.5853    0.0000 H   0  0  0  0  0  0  0  0  0  0  0  0
    1.6737   -7.2379    0.0000 H   0  0  0  0  0  0  0  0  0  0  0  0
   -0.2323   -8.1691    0.0000 H   0  0  0  0  0  0  0  0  0  0  0  0
    2.0549   -6.0582    0.0000 H   0  0  0  0  0  0  0  0  0  0  0  0
   -0.8220   -5.8911    0.0000 H   0  0  0  0  0  0  0  0  0  0  0  0
   -2.6477   -4.3092    0.0000 H   0  0  0  0  0  0  0  0  0  0  0  0
   -1.6470   -1.8056    0.0000 H   0  0  0  0  0  0  0  0  0  0  0  0
    0.4816   -1.2734    0.0000 H   0  0  0  0  0  0  0  0  0  0  0  0
    2.6434   -2.6599    0.0000 H   0  0  0  0  0  0  0  0  0  0  0  0
    3.1103   -1.8163    0.0000 H   0  0  0  0  0  0  0  0  0  0  0  0
    5.3591   -0.4388    0.0000 H   0  0  0  0  0  0  0  0  0  0  0  0
    3.9046   -1.7049    0.0000 H   0  0  0  0  0  0  0  0  0  0  0  0
    2.8414    3.7449    0.0000 H   0  0  0  0  0  0  0  0  0  0  0  0
    4.5613    3.2692    0.0000 H   0  0  0  0  0  0  0  0  0  0  0  0
    0.4254    5.7391    0.0000 H   0  0  0  0  0  0  0  0  0  0  0  0
   -7.4232    2.8844    0.0000 H   0  0  0  0  0  0  0  0  0  0  0  0
   -6.4485    5.7216    0.0000 H   0  0  0  0  0  0  0  0  0  0  0  0
   -3.5040    6.2960    0.0000 H   0  0  0  0  0  0  0  0  0  0  0  0
   -6.6386   -1.1379    0.0000 H   0  0  0  0  0  0  0  0  0  0  0  0
   -7.2130    1.8066    0.0000 H   0  0  0  0  0  0  0  0  0  0  0  0
   -8.3980    0.0472    0.0000 H   0  0  0  0  0  0  0  0  0  0  0  0
   -2.0373   -0.9892    0.0000 H   0  0  0  0  0  0  0  0  0  0  0  0
    7.1027    0.6792    0.0000 H   0  0  0  0  0  0  0  0  0  0  0  0
    7.0233    3.6279    0.0000 H   0  0  0  0  0  0  0  0  0  0  0  0
    9.2146    3.0789    0.0000 H   0  0  0  0  0  0  0  0  0  0  0  0
    7.0471    1.0982    0.0000 H   0  0  0  0  0  0  0  0  0  0  0  0
   -3.7348   -2.8541    0.0000 H   0  0  0  0  0  0  0  0  0  0  0  0
   -2.1330   -1.0725    0.0000 H   0  0  0  0  0  0  0  0  0  0  0  0
   -3.3269   -4.3826    0.0000 H   0  0  0  0  0  0  0  0  0  0  0  0
    0.7500    7.2960    0.0000 H   0  0  0  0  0  0  0  0  0  0  0  0
  1 41  1  0
  1 42  1  0
  1 43  1  0
  2  3  1  0
  2  7  1  0
  2 44  1  6
  2  1  1  0
  3  4  1  0
  3 45  1  6
  3 39  1  0
  4  5  1  0
  4 46  1  6
  4 38  1  0
  5  6  1  0
  5 47  1  0
  5 48  1  0
  6  7  1  0
  6  8  1  0
  6 49  1  1
  9 10  1  0
  9 14  1  0
  9 50  1  1
  9  8  1  0
 10 11  1  0
 10 51  1  0
 10 52  1  0
 11 12  1  0
 11 33  1  0
 11 37  1  6
 12 13  1  0
 12 53  1  0
 12 54  1  0
 13 14  2  0
 13 18  1  0
 14 15  1  0
 15 16  2  0
 15 32  1  0
 16 17  1  0
 16 24  1  0
 17 18  2  0
 17 20  1  0
 18 19  1  0
 19 55  1  0
 20 21  2  0
 20 22  1  0
 22 23  2  0
 22 29  1  0
 23 24  1  0
 23 26  1  0
 24 25  2  0
 26 27  2  0
 26 30  1  0
 27 28  1  0
 27 56  1  0
 28 29  2  0
 28 57  1  0
 29 58  1  0
 30 31  1  0
 31 59  1  0
 31 60  1  0
 31 61  1  0
 32 62  1  0
 33 34  2  0
 33 35  1  0
 35 36  1  0
 35 63  1  0
 35 64  1  0
 36 65  1  0
 37 66  1  0
 38 67  1  0
 38 68  1  0
 39 69  1  0
 40 70  1  0
M  END
$$$$

     RDKit          2D

 36 39  0  0  0  0  0  0  0  0999 V2000
   -2.5424    0.6721    0.0000 C   0  0  0  0  0  0  0  0  0  0  0  0
   -3.8782   -0.0102    0.0000 C   0  0  0  0  0  0  0  0  0  0  0  0
   -3.9553   -1.5082    0.0000 C   0  0  0  0  0  0  0  0  0  0  0  0
   -2.6965   -2.3239    0.0000 C   0  0  0  0  0  0  0  0  0  0  0  0
   -1.3606   -1.6416    0.0000 C   0  0  0  0  0  0  0  0  0  0  0  0
   -1.2836   -0.1436    0.0000 C   0  0  0  0  0  0  0  0  0  0  0  0
   -0.1018   -2.4574    0.0000 C   0  0  0  0  0  0  0  0  0  0  0  0
    0.9201   -1.3593    0.0000 C   0  0  0  0  0  0  0  0  0  0  0  0
    1.3601   -2.7934    0.0000 O   0  0  0  0  0  0  0  0  0  0  0  0
    0.0162   -0.1623    0.0000 C   0  0  0  0  0  0  0  0  0  0  0  0
   -0.8877    1.0348    0.0000 N   0  0  0  0  0  0  0  0  0  0  0  0
   -0.4505    2.4697    0.0000 C   0  0  0  0  0  0  0  0  0  0  0  0
   -1.6801    3.3288    0.0000 N   0  0  0  0  0  0  0  0  0  0  0  0
   -2.8772    2.4250    0.0000 C   0  0  0  0  0  0  0  0  0  0  0  0
   -2.3874    1.0072    0.0000 N   0  0  0  0  0  0  0  0  0  0  0  0
    2.2560   -0.6771    0.0000 C   0  0  0  0  0  0  0  0  0  0  0  0
    3.5148   -1.4928    0.0000 C   0  0  0  0  0  0  0  0  0  0  0  0
    4.8506   -0.8105    0.0000 C   0  0  0  0  0  0  0  0  0  0  0  0
    4.9276    0.6875    0.0000 C   0  0  0  0  0  0  0  0  0  0  0  0
    3.6688    1.5033    0.0000 C   0  0  0  0  0  0  0  0  0  0  0  0
    2.3330    0.8210    0.0000 C   0  0  0  0  0  0  0  0  0  0  0  0
    6.2635    1.3698    0.0000 F   0  0  0  0  0  0  0  0  0  0  0  0
   -2.7735   -3.8220    0.0000 Cl  0  0  0  0  0  0  0  0  0  0  0  0
   -2.8301    2.1442    0.0000 H   0  0  0  0  0  0  0  0  0  0  0  0
   -5.1370    0.8055    0.0000 H   0  0  0  0  0  0  0  0  0  0  0  0
   -5.2911   -2.1905    0.0000 H   0  0  0  0  0  0  0  0  0  0  0  0
   -0.1525    0.8416    0.0000 H   0  0  0  0  0  0  0  0  0  0  0  0
   -0.6866   -3.8387    0.0000 H   0  0  0  0  0  0  0  0  0  0  0  0
   -1.3640   -0.7496    0.0000 H   0  0  0  0  0  0  0  0  0  0  0  0
    1.0942    0.8808    0.0000 H   0  0  0  0  0  0  0  0  0  0  0  0
    0.9673    2.9594    0.0000 H   0  0  0  0  0  0  0  0  0  0  0  0
   -4.3120    2.8621    0.0000 H   0  0  0  0  0  0  0  0  0  0  0  0
    3.4377   -2.9908    0.0000 H   0  0  0  0  0  0  0  0  0  0  0  0
    6.1094   -1.6262    0.0000 H   0  0  0  0  0  0  0  0  0  0  0  0
    3.7459    3.0013    0.0000 H   0  0  0  0  0  0  0  0  0  0  0  0
    1.1830    1.7841    0.0000 H   0  0  0  0  0  0  0  0  0  0  0  0
  1  2  2  0
  1  6  1  0
  1 24  1  0
  2  3  1  0
  2 25  1  0
  3  4  2  0
  3 26  1  0
  4  5  1  0
  4 23  1  0
  5  6  2  0
  5  7  1  0
  6 27  1  0
  7  8  1  0
  7  9  1  0
  7 28  1  6
  8  9  1  0
  8 10  1  6
  8 16  1  0
 10 11  1  0
 10 29  1  0
 10 30  1  0
 11 12  1  0
 11 15  1  0
 12 13  2  0
 12 31  1  0
 13 14  1  0
 14 15  2  0
 14 32  1  0
 16 17  2  0
 16 21  1  0
 17 18  1  0
 17 33  1  0
 18 19  2  0
 18 34  1  0
 19 20  1  0
 19 22  1  0
 20 21  2  0
 20 35  1  0
 21 36  1  0
M  END
$$$$

     RDKit          2D

 15 15  0  0  0  0  0  0  0  0999 V2000
   -1.9923   -0.2296    0.0000 C   0  0  0  0  0  0  0  0  0  0  0  0
   -1.1677   -1.4826    0.0000 C   0  0  0  0  0  0  0  0  0  0  0  0
    0.3260   -1.6192    0.0000 C   0  0  0  0  0  0  0  0  0  0  0  0
    1.3642   -0.5365    0.0000 C   0  0  0  0  0  0  0  0  0  0  0  0
    1.1650    0.9502    0.0000 C   0  0  0  0  0  0  0  0  0  0  0  0
    2.4180    1.7747    0.0000 O   0  0  0  0  0  0  0  0  0  0  0  0
   -0.1216    1.7214    0.0000 C   0  0  0  0  0  0  0  0  0  0  0  0
   -1.5267    1.1963    0.0000 C   0  0  0  0  0  0  0  0  0  0  0  0
    2.7901   -1.0021    0.0000 O   0  0  0  0  0  0  0  0  0  0  0  0
   -3.4790   -0.4288    0.0000 H   0  0  0  0  0  0  0  0  0  0  0  0
   -1.9389   -2.7692    0.0000 H   0  0  0  0  0  0  0  0  0  0  0  0
    0.8511   -3.0243    0.0000 H   0  0  0  0  0  0  0  0  0  0  0  0
    0.0150    3.2152    0.0000 H   0  0  0  0  0  0  0  0  0  0  0  0
   -2.6094    2.2345    0.0000 H   0  0  0  0  0  0  0  0  0  0  0  0
    3.9063    0.0000    0.0000 H   0  0  0  0  0  0  0  0  0  0  0  0
  1  2  2  0
  1  8  1  0
  1 10  1  0
  2  3  1  0
  2 11  1  0
  3  4  2  0
  3 12  1  0
  4  5  1  0
  4  9  1  0
  5  6  2  0
  5  7  1  0
  7  8  2  0
  7 13  1  0
  8 14  1  0
  9 15  1  0
M  END
$$$$

     RDKit          2D

 26 26  0  0  0  0  0  0  0  0999 V2000
    1.3609   -1.6245    0.0000 C   0  0  0  0  0  0  0  0  0  0  0  0
    1.6097   -0.1452    0.0000 C   0  0  0  0  0  0  0  0  0  0  0  0
    1.8584    1.3340    0.0000 C   0  0  0  0  0  0  0  0  0  0  0  0
    3.0889   -0.3940    0.0000 C   0  0  0  0  0  0  0  0  0  0  0  0
    0.1304    0.1035    0.0000 C   0  0  0  0  0  0  0  0  0  0  0  0
   -0.8246   -1.0532    0.0000 C   0  0  0  0  0  0  0  0  0  0  0  0
   -2.3038   -0.8044    0.0000 C   0  0  0  0  0  0  0  0  0  0  0  0
   -2.8280    0.6010    0.0000 C   0  0  0  0  0  0  0  0  0  0  0  0
   -1.8730    1.7577    0.0000 C   0  0  0  0  0  0  0  0  0  0  0  0
   -0.3938    1.5089    0.0000 C   0  0  0  0  0  0  0  0  0  0  0  0
   -4.3073    0.8497    0.0000 O   0  0  0  0  0  0  0  0  0  0  0  0
   -3.2589   -1.9611    0.0000 O   0  0  0  0  0  0  0  0  0  0  0  0
    2.2100   -1.8767    0.0000 H   0  0  0  0  0  0  0  0  0  0  0  0
    0.4779   -1.6933    0.0000 H   0  0  0  0  0  0  0  0  0  0  0  0
    1.1122   -3.1037    0.0000 H   0  0  0  0  0  0  0  0  0  0  0  0
    2.7433    1.2947    0.0000 H   0  0  0  0  0  0  0  0  0  0  0  0
    0.4833    1.9333    0.0000 H   0  0  0  0  0  0  0  0  0  0  0  0
    2.1071    2.8132    0.0000 H   0  0  0  0  0  0  0  0  0  0  0  0
    3.3411    0.4551    0.0000 H   0  0  0  0  0  0  0  0  0  0  0  0
    3.0496   -1.2788    0.0000 H   0  0  0  0  0  0  0  0  0  0  0  0
    4.5681   -0.6427    0.0000 H   0  0  0  0  0  0  0  0  0  0  0  0
   -0.5151   -1.8831    0.0000 H   0  0  0  0  0  0  0  0  0  0  0  0
   -2.3972    3.1631    0.0000 H   0  0  0  0  0  0  0  0  0  0  0  0
    0.5613    2.6656    0.0000 H   0  0  0  0  0  0  0  0  0  0  0  0
   -5.2623   -0.3069    0.0000 H   0  0  0  0  0  0  0  0  0  0  0  0
   -4.7381   -1.7124    0.0000 H   0  0  0  0  0  0  0  0  0  0  0  0
  1  2  1  0
  1 13  1  0
  1 14  1  0
  1 15  1  0
  2  3  1  0
  2  4  1  0
  2  5  1  0
  3 16  1  0
  3 17  1  0
  3 18  1  0
  4 19  1  0
  4 20  1  0
  4 21  1  0
  5  6  2  0
  5 10  1  0
  6  7  1  0
  6 22  1  0
  7  8  2  0
  7 12  1  0
  8  9  1  0
  8 11  1  0
  9 10  2  0
  9 23  1  0
 10 24  1  0
 11 25  1  0
 12 26  1  0
M  END
$$$$

     RDKit          2D

 48 50  0  0  0  0  0  0  0  0999 V2000
    7.4752   -2.0926    0.0000 C   0  0  0  0  0  0  0  0  0  0  0  0
    6.7837   -0.7615    0.0000 O   0  0  0  0  0  0  0  0  0  0  0  0
    5.2852   -0.6948    0.0000 C   0  0  0  0  0  0  0  0  0  0  0  0
    4.4781   -1.9592    0.0000 C   0  0  0  0  0  0  0  0  0  0  0  0
    2.9796   -1.8925    0.0000 C   0  0  0  0  0  0  0  0  0  0  0  0
    2.2881   -0.5614    0.0000 C   0  0  0  0  0  0  0  0  0  0  0  0
    3.0952    0.7030    0.0000 C   0  0  0  0  0  0  0  0  0  0  0  0
    4.5937    0.6363    0.0000 C   0  0  0  0  0  0  0  0  0  0  0  0
    0.7896   -0.4947    0.0000 C   0  0  0  0  0  0  0  0  0  0  0  0
   -0.0174   -1.7591    0.0000 C   0  0  0  0  0  0  0  0  0  0  0  0
   -1.5159   -1.6924    0.0000 C   0  0  0  0  0  0  0  0  0  0  0  0
   -2.2074   -0.3613    0.0000 C   0  0  0  0  0  0  0  0  0  0  0  0
   -3.7059   -0.2946    0.0000 C   0  0  0  0  0  0  0  0  0  0  0  0
   -4.5130   -1.5590    0.0000 C   0  0  0  0  0  0  0  0  0  0  0  0
   -3.8215   -2.8901    0.0000 C   0  0  0  0  0  0  0  0  0  0  0  0
   -2.3230   -2.9568    0.0000 C   0  0  0  0  0  0  0  0  0  0  0  0
   -6.0115   -1.4923    0.0000 O   0  0  0  0  0  0  0  0  0  0  0  0
   -6.8185   -2.7567    0.0000 C   0  0  0  0  0  0  0  0  0  0  0  0
    0.6741   -3.0902    0.0000 Cl  0  0  0  0  0  0  0  0  0  0  0  0
    0.0981    0.8364    0.0000 C   0  0  0  0  0  0  0  0  0  0  0  0
   -1.4004    0.9031    0.0000 C   0  0  0  0  0  0  0  0  0  0  0  0
   -2.0919    2.2342    0.0000 C   0  0  0  0  0  0  0  0  0  0  0  0
   -1.2849    3.4986    0.0000 C   0  0  0  0  0  0  0  0  0  0  0  0
    0.2137    3.4319    0.0000 C   0  0  0  0  0  0  0  0  0  0  0  0
    0.9051    2.1008    0.0000 C   0  0  0  0  0  0  0  0  0  0  0  0
   -1.9764    4.8297    0.0000 O   0  0  0  0  0  0  0  0  0  0  0  0
   -1.1693    6.0941    0.0000 C   0  0  0  0  0  0  0  0  0  0  0  0
    8.8063   -1.4011    0.0000 H   0  0  0  0  0  0  0  0  0  0  0  0
    6.1441   -2.7841    0.0000 H   0  0  0  0  0  0  0  0  0  0  0  0
    8.1667   -3.4237    0.0000 H   0  0  0  0  0  0  0  0  0  0  0  0
    5.1696   -3.2903    0.0000 H   0  0  0  0  0  0  0  0  0  0  0  0
    2.1726   -3.1569    0.0000 H   0  0  0  0  0  0  0  0  0  0  0  0
    2.5711    2.1085    0.0000 H   0  0  0  0  0  0  0  0  0  0  0  0
    5.4007    1.9007    0.0000 H   0  0  0  0  0  0  0  0  0  0  0  0
   -1.9539    0.3945    0.0000 H   0  0  0  0  0  0  0  0  0  0  0  0
   -4.3974    1.0365    0.0000 H   0  0  0  0  0  0  0  0  0  0  0  0
   -4.6285   -4.1545    0.0000 H   0  0  0  0  0  0  0  0  0  0  0  0
   -1.6315   -4.2879    0.0000 H   0  0  0  0  0  0  0  0  0  0  0  0
   -8.0829   -1.9496    0.0000 H   0  0  0  0  0  0  0  0  0  0  0  0
   -5.5541   -3.5637    0.0000 H   0  0  0  0  0  0  0  0  0  0  0  0
   -7.6255   -4.0211    0.0000 H   0  0  0  0  0  0  0  0  0  0  0  0
   -2.4894   -0.1284    0.0000 H   0  0  0  0  0  0  0  0  0  0  0  0
   -3.5904    2.3009    0.0000 H   0  0  0  0  0  0  0  0  0  0  0  0
    1.0207    4.6963    0.0000 H   0  0  0  0  0  0  0  0  0  0  0  0
    2.4006    2.2173    0.0000 H   0  0  0  0  0  0  0  0  0  0  0  0
   -2.4337    6.9012    0.0000 H   0  0  0  0  0  0  0  0  0  0  0  0
    0.0951    5.2871    0.0000 H   0  0  0  0  0  0  0  0  0  0  0  0
   -0.3623    7.3585    0.0000 H   0  0  0  0  0  0  0  0  0  0  0  0
  1  2  1  0
  1 28  1  0
  1 29  1  0
  1 30  1  0
  2  3  1  0
  3  4  2  0
  3  8  1  0
  4  5  1  0
  4 31  1  0
  5  6  2  0
  5 32  1  0
  6  7  1  0
  6  9  1  0
  7  8  2  0
  7 33  1  0
  8 34  1  0
  9 10  2  0
  9 20  1  0
 10 11  1  0
 10 19  1  0
 11 12  2  0
 11 16  1  0
 12 13  1  0
 12 35  1  0
 13 14  2  0
 13 36  1  0
 14 15  1  0
 14 17  1  0
 15 16  2  0
 15 37  1  0
 16 38  1  0
 17 18  1  0
 18 39  1  0
 18 40  1  0
 18 41  1  0
 20 21  2  0
 20 25  1  0
 21 22  1  0
 21 42  1  0
 22 23  2  0
 22 43  1  0
 23 24  1  0
 23 26  1  0
 24 25  2  0
 24 44  1  0
 25 45  1  0
 26 27  1  0
 27 46  1  0
 27 47  1  0
 27 48  1  0
M  END
$$$$

     RDKit          2D

 60 62  0  0  0  0  0  0  0  0999 V2000
   -7.4677    1.9267    0.0000 C   0  0  0  0  0  0  0  0  0  0  0  0
   -7.5098    0.4273    0.0000 C   0  0  0  0  0  0  0  0  0  0  0  0
   -8.7476   -0.4200    0.0000 N   0  0  0  0  0  0  0  0  0  0  0  0
   -8.3243   -1.8590    0.0000 C   0  0  0  0  0  0  0  0  0  0  0  0
   -6.8249   -1.9012    0.0000 C   0  0  0  0  0  0  0  0  0  0  0  0
   -6.3215   -0.4881    0.0000 N   0  0  0  0  0  0  0  0  0  0  0  0
   -4.8824   -0.0649    0.0000 C   0  0  0  0  0  0  0  0  0  0  0  0
   -3.7963   -1.0994    0.0000 C   0  0  0  0  0  0  0  0  0  0  0  0
   -2.3573   -0.6762    0.0000 C   0  0  0  0  0  0  0  0  0  0  0  0
   -2.0044    0.7817    0.0000 C   0  0  0  0  0  0  0  0  0  0  0  0
   -3.0905    1.8163    0.0000 C   0  0  0  0  0  0  0  0  0  0  0  0
   -4.5295    1.3930    0.0000 C   0  0  0  0  0  0  0  0  0  0  0  0
   -0.5653    1.2050    0.0000 S   0  0  0  0  0  0  0  0  0  0  0  0
    0.5208    0.1704    0.0000 C   0  0  0  0  0  0  0  0  0  0  0  0
    0.1678   -1.2874    0.0000 C   0  0  0  0  0  0  0  0  0  0  0  0
    1.2539   -2.3220    0.0000 C   0  0  0  0  0  0  0  0  0  0  0  0
    2.6930   -1.8987    0.0000 C   0  0  0  0  0  0  0  0  0  0  0  0
    3.0459   -0.4409    0.0000 C   0  0  0  0  0  0  0  0  0  0  0  0
    1.9598    0.5937    0.0000 C   0  0  0  0  0  0  0  0  0  0  0  0
    4.4849   -0.0176    0.0000 C   0  0  0  0  0  0  0  0  0  0  0  0
    3.8182    1.3261    0.0000 C   0  0  0  0  0  0  0  0  0  0  0  0
    4.6485    2.5754    0.0000 C   0  0  0  0  0  0  0  0  0  0  0  0
    6.1455    2.4809    0.0000 O   0  0  0  0  0  0  0  0  0  0  0  0
    6.8122    1.1373    0.0000 C   0  0  0  0  0  0  0  0  0  0  0  0
    5.9820   -0.1120    0.0000 C   0  0  0  0  0  0  0  0  0  0  0  0
    4.6519   -1.5082    0.0000 C   0  0  0  0  0  0  0  0  0  0  0  0
    4.0726   -2.0559    0.0000 O   0  0  0  0  0  0  0  0  0  0  0  0
    6.0264   -2.1090    0.0000 N   0  0  0  0  0  0  0  0  0  0  0  0
    1.0809    6.4744    0.0000 C   0  0  0  0  0  0  0  0  0  0  0  0
   -0.3603    6.8904    0.0000 S   0  0  0  0  0  0  0  0  0  0  0  0
    0.0557    8.3316    0.0000 O   0  0  0  0  0  0  0  0  0  0  0  0
   -0.7763    5.4493    0.0000 O   0  0  0  0  0  0  0  0  0  0  0  0
   -1.8014    7.3064    0.0000 O   0  0  0  0  0  0  0  0  0  0  0  0
   -8.9671    1.9688    0.0000 H   0  0  0  0  0  0  0  0  0  0  0  0
   -6.2580    2.0409    0.0000 H   0  0  0  0  0  0  0  0  0  0  0  0
   -7.4256    3.4261    0.0000 H   0  0  0  0  0  0  0  0  0  0  0  0
   -9.2397   -3.0473    0.0000 H   0  0  0  0  0  0  0  0  0  0  0  0
   -5.9776   -3.1390    0.0000 H   0  0  0  0  0  0  0  0  0  0  0  0
   -4.1493   -2.5573    0.0000 H   0  0  0  0  0  0  0  0  0  0  0  0
   -1.7328   -1.4367    0.0000 H   0  0  0  0  0  0  0  0  0  0  0  0
   -2.7375    3.2742    0.0000 H   0  0  0  0  0  0  0  0  0  0  0  0
   -5.3005    2.3320    0.0000 H   0  0  0  0  0  0  0  0  0  0  0  0
   -0.7354   -1.6782    0.0000 H   0  0  0  0  0  0  0  0  0  0  0  0
    0.9010   -3.7799    0.0000 H   0  0  0  0  0  0  0  0  0  0  0  0
    3.1988   -2.5148    0.0000 H   0  0  0  0  0  0  0  0  0  0  0  0
    2.1324    2.0838    0.0000 H   0  0  0  0  0  0  0  0  0  0  0  0
    2.8663    2.4854    0.0000 H   0  0  0  0  0  0  0  0  0  0  0  0
    2.4312    0.7548    0.0000 H   0  0  0  0  0  0  0  0  0  0  0  0
    5.0014    4.0332    0.0000 H   0  0  0  0  0  0  0  0  0  0  0  0
    3.2740    3.1761    0.0000 H   0  0  0  0  0  0  0  0  0  0  0  0
    7.8983    0.1027    0.0000 H   0  0  0  0  0  0  0  0  0  0  0  0
    8.0197    2.0272    0.0000 H   0  0  0  0  0  0  0  0  0  0  0  0
    5.9923   -1.6119    0.0000 H   0  0  0  0  0  0  0  0  0  0  0  0
    7.4194   -0.5407    0.0000 H   0  0  0  0  0  0  0  0  0  0  0  0
    6.1933   -3.5997    0.0000 H   0  0  0  0  0  0  0  0  0  0  0  0
    7.3333   -1.3729    0.0000 H   0  0  0  0  0  0  0  0  0  0  0  0
    0.6648    5.0332    0.0000 H   0  0  0  0  0  0  0  0  0  0  0  0
    1.4969    7.9156    0.0000 H   0  0  0  0  0  0  0  0  0  0  0  0
    2.5220    6.0584    0.0000 H   0  0  0  0  0  0  0  0  0  0  0  0
   -2.8823    6.2664    0.0000 H   0  0  0  0  0  0  0  0  0  0  0  0
  1  2  1  0
  1 34  1  0
  1 35  1  0
  1 36  1  0
  2  3  2  0
  2  6  1  0
  3  4  1  0
  4  5  2  0
  4 37  1  0
  5  6  1  0
  5 38  1  0
  6  7  1  0
  7  8  2  0
  7 12  1  0
  8  9  1  0
  8 39  1  0
  9 10  2  0
  9 40  1  0
 10 11  1  0
 10 13  1  0
 11 12  2  0
 11 41  1  0
 12 42  1  0
 13 14  1  0
 14 15  2  0
 14 19  1  0
 15 16  1  0
 15 43  1  0
 16 17  2  0
 16 44  1  0
 17 18  1  0
 17 45  1  0
 18 19  2  0
 18 20  1  0
 19 46  1  0
 20 21  1  0
 20 25  1  0
 20 26  1  0
 21 22  1  0
 21 47  1  0
 21 48  1  0
 22 23  1  0
 22 49  1  0
 22 50  1  0
 23 24  1  0
 24 25  1  0
 24 51  1  0
 24 52  1  0
 25 53  1  0
 25 54  1  0
 26 27  2  0
 26 28  1  0
 28 55  1  0
 28 56  1  0
 29 30  1  0
 29 57  1  0
 29 58  1  0
 29 59  1  0
 30 31  2  0
 30 32  2  0
 30 33  1  0
 33 60  1  0
M  END
$$$$

     RDKit          2D

 34 36  0  0  0  0  0  0  0  0999 V2000
   -1.9401   -2.5382    0.0000 C   0  0  0  0  0  0  0  0  0  0  0  0
   -0.7528   -3.4549    0.0000 C   0  0  0  0  0  0  0  0  0  0  0  0
    0.6348   -2.8850    0.0000 C   0  0  0  0  0  0  0  0  0  0  0  0
    0.8350   -1.3984    0.0000 C   0  0  0  0  0  0  0  0  0  0  0  0
   -0.3523   -0.4817    0.0000 C   0  0  0  0  0  0  0  0  0  0  0  0
   -1.7399   -1.0516    0.0000 C   0  0  0  0  0  0  0  0  0  0  0  0
   -0.1521    1.0048    0.0000 C   0  0  0  0  0  0  0  0  0  0  0  0
    1.3344    0.8046    0.0000 C   0  0  0  0  0  0  0  0  0  0  0  0
    1.9043   -0.5829    0.0000 C   0  0  0  0  0  0  0  0  0  0  0  0
    3.3909   -0.7831    0.0000 C   0  0  0  0  0  0  0  0  0  0  0  0
    4.3076    0.4042    0.0000 C   0  0  0  0  0  0  0  0  0  0  0  0
    3.7377    1.7917    0.0000 C   0  0  0  0  0  0  0  0  0  0  0  0
    2.2511    1.9919    0.0000 C   0  0  0  0  0  0  0  0  0  0  0  0
    5.7942    0.2040    0.0000 Cl  0  0  0  0  0  0  0  0  0  0  0  0
   -1.6387    1.2050    0.0000 C   0  0  0  0  0  0  0  0  0  0  0  0
   -2.2086    2.5926    0.0000 C   0  0  0  0  0  0  0  0  0  0  0  0
   -3.6952    2.7928    0.0000 N   0  0  0  0  0  0  0  0  0  0  0  0
   -4.6119    1.6055    0.0000 C   0  0  0  0  0  0  0  0  0  0  0  0
   -4.0420    0.2179    0.0000 N   0  0  0  0  0  0  0  0  0  0  0  0
   -2.5554    0.0177    0.0000 C   0  0  0  0  0  0  0  0  0  0  0  0
    0.0481    2.4914    0.0000 O   0  0  0  0  0  0  0  0  0  0  0  0
    1.6237   -1.2830    0.0000 Cl  0  0  0  0  0  0  0  0  0  0  0  0
   -3.3276   -3.1081    0.0000 H   0  0  0  0  0  0  0  0  0  0  0  0
   -0.9530   -4.9415    0.0000 H   0  0  0  0  0  0  0  0  0  0  0  0
    1.8221   -3.8017    0.0000 H   0  0  0  0  0  0  0  0  0  0  0  0
   -3.1137   -0.4495    0.0000 H   0  0  0  0  0  0  0  0  0  0  0  0
    1.3022   -1.9567    0.0000 H   0  0  0  0  0  0  0  0  0  0  0  0
    3.9608   -2.1706    0.0000 H   0  0  0  0  0  0  0  0  0  0  0  0
    4.6544    2.9790    0.0000 H   0  0  0  0  0  0  0  0  0  0  0  0
    1.8546    3.4386    0.0000 H   0  0  0  0  0  0  0  0  0  0  0  0
   -1.2919    3.7799    0.0000 H   0  0  0  0  0  0  0  0  0  0  0  0
   -6.0984    1.8057    0.0000 H   0  0  0  0  0  0  0  0  0  0  0  0
   -2.3382   -1.4665    0.0000 H   0  0  0  0  0  0  0  0  0  0  0  0
    1.3558    3.2262    0.0000 H   0  0  0  0  0  0  0  0  0  0  0  0
  1  2  2  0
  1  6  1  0
  1 23  1  0
  2  3  1  0
  2 24  1  0
  3  4  2  0
  3 25  1  0
  4  5  1  0
  4 22  1  0
  5  6  2  0
  5  7  1  0
  6 26  1  0
  7  8  1  0
  7 15  1  0
  7 21  1  1
  8  9  2  0
  8 13  1  0
  9 10  1  0
  9 27  1  0
 10 11  2  0
 10 28  1  0
 11 12  1  0
 11 14  1  0
 12 13  2  0
 12 29  1  0
 13 30  1  0
 15 16  2  0
 15 20  1  0
 16 17  1  0
 16 31  1  0
 17 18  2  0
 18 19  1  0
 18 32  1  0
 19 20  2  0
 20 33  1  0
 21 34  1  0
M  END
$$$$

     RDKit          2D

 32 32  0  0  0  0  0  0  0  0999 V2000
    4.4856    1.3181    0.0000 C   0  0  0  0  0  0  0  0  0  0  0  0
    3.0031    1.5470    0.0000 C   0  0  0  0  0  0  0  0  0  0  0  0
    1.5207    1.7759    0.0000 O   0  0  0  0  0  0  0  0  0  0  0  0
    0.5812    0.6065    0.0000 P   0  0  0  0  0  0  0  0  0  0  0  0
    0.0383    2.0048    0.0000 O   0  0  0  0  0  0  0  0  0  0  0  0
    2.0637    0.3776    0.0000 O   0  0  0  0  0  0  0  0  0  0  0  0
    2.6066   -1.0207    0.0000 C   0  0  0  0  0  0  0  0  0  0  0  0
    3.1496   -2.4189    0.0000 C   0  0  0  0  0  0  0  0  0  0  0  0
   -0.3582   -0.5628    0.0000 O   0  0  0  0  0  0  0  0  0  0  0  0
   -1.8407   -0.3339    0.0000 C   0  0  0  0  0  0  0  0  0  0  0  0
   -2.7801   -1.5033    0.0000 C   0  0  0  0  0  0  0  0  0  0  0  0
   -4.2625   -1.2744    0.0000 C   0  0  0  0  0  0  0  0  0  0  0  0
   -4.8055    0.1239    0.0000 C   0  0  0  0  0  0  0  0  0  0  0  0
   -3.8661    1.2933    0.0000 C   0  0  0  0  0  0  0  0  0  0  0  0
   -2.3836    1.0644    0.0000 C   0  0  0  0  0  0  0  0  0  0  0  0
   -6.2879    0.3528    0.0000 N   0  0  0  0  0  0  0  0  0  0  0  0
   -7.2274   -0.8165    0.0000 O   0  0  0  0  0  0  0  0  0  0  0  0
   -6.8309    1.7511    0.0000 O   0  0  0  0  0  0  0  0  0  0  0  0
    4.7145    2.8005    0.0000 H   0  0  0  0  0  0  0  0  0  0  0  0
    4.4479    0.1037    0.0000 H   0  0  0  0  0  0  0  0  0  0  0  0
    5.9680    1.0892    0.0000 H   0  0  0  0  0  0  0  0  0  0  0  0
    3.2320    3.0294    0.0000 H   0  0  0  0  0  0  0  0  0  0  0  0
    3.1397    0.0532    0.0000 H   0  0  0  0  0  0  0  0  0  0  0  0
    3.7844   -0.7222    0.0000 H   0  0  0  0  0  0  0  0  0  0  0  0
    1.2083   -1.5636    0.0000 H   0  0  0  0  0  0  0  0  0  0  0  0
    1.7513   -2.9619    0.0000 H   0  0  0  0  0  0  0  0  0  0  0  0
    4.5479   -1.8760    0.0000 H   0  0  0  0  0  0  0  0  0  0  0  0
    3.6926   -3.8172    0.0000 H   0  0  0  0  0  0  0  0  0  0  0  0
   -2.2372   -2.9016    0.0000 H   0  0  0  0  0  0  0  0  0  0  0  0
   -5.2020   -2.4437    0.0000 H   0  0  0  0  0  0  0  0  0  0  0  0
   -4.4090    2.6916    0.0000 H   0  0  0  0  0  0  0  0  0  0  0  0
   -1.4442    2.2337    0.0000 H   0  0  0  0  0  0  0  0  0  0  0  0
  1  2  1  0
  1 19  1  0
  1 20  1  0
  1 21  1  0
  2  3  1  0
  2 22  1  0
  2 23  1  0
  3  4  1  0
  4  5  2  0
  4  6  1  0
  4  9  1  0
  6  7  1  0
  7  8  1  0
  7 24  1  0
  7 25  1  0
  8 26  1  0
  8 27  1  0
  8 28  1  0
  9 10  1  0
 10 11  2  0
 10 15  1  0
 11 12  1  0
 11 29  1  0
 12 13  2  0
 12 30  1  0
 13 14  1  0
 13 16  1  0
 14 15  2  0
 14 31  1  0
 15 32  1  0
 16 17  2  0
 16 18  1  0
M  CHG  2  16   1  18  -1
M  END
$$$$

     RDKit          2D

 41 42  0  0  0  0  0  0  0  0999 V2000
   -3.0408   -3.0596    0.0000 C   0  0  0  0  0  0  0  0  0  0  0  0
   -3.1593   -1.5643    0.0000 C   0  0  0  0  0  0  0  0  0  0  0  0
   -3.2779   -0.0690    0.0000 N   0  0  0  0  0  0  0  0  0  0  0  0
   -4.6321    0.5761    0.0000 C   0  0  0  0  0  0  0  0  0  0  0  0
   -5.9863    1.2211    0.0000 C   0  0  0  0  0  0  0  0  0  0  0  0
   -2.0421    0.7813    0.0000 C   0  0  0  0  0  0  0  0  0  0  0  0
   -2.3420    2.2510    0.0000 O   0  0  0  0  0  0  0  0  0  0  0  0
   -0.6879    0.1363    0.0000 C   0  0  0  0  0  0  0  0  0  0  0  0
   -0.0429    1.4906    0.0000 C   0  0  0  0  0  0  0  0  0  0  0  0
    0.6663   -0.5087    0.0000 O   0  0  0  0  0  0  0  0  0  0  0  0
    1.9021    0.3416    0.0000 C   0  0  0  0  0  0  0  0  0  0  0  0
    1.7835    1.8369    0.0000 C   0  0  0  0  0  0  0  0  0  0  0  0
    3.0193    2.6872    0.0000 C   0  0  0  0  0  0  0  0  0  0  0  0
    4.3735    2.0422    0.0000 C   0  0  0  0  0  0  0  0  0  0  0  0
    4.4920    0.5469    0.0000 C   0  0  0  0  0  0  0  0  0  0  0  0
    5.8462   -0.0981    0.0000 C   0  0  0  0  0  0  0  0  0  0  0  0
    5.9648   -1.5934    0.0000 C   0  0  0  0  0  0  0  0  0  0  0  0
    4.7290   -2.4437    0.0000 C   0  0  0  0  0  0  0  0  0  0  0  0
    3.3748   -1.7987    0.0000 C   0  0  0  0  0  0  0  0  0  0  0  0
    3.2563   -0.3034    0.0000 C   0  0  0  0  0  0  0  0  0  0  0  0
   -4.5361   -3.1781    0.0000 H   0  0  0  0  0  0  0  0  0  0  0  0
   -1.5455   -2.9411    0.0000 H   0  0  0  0  0  0  0  0  0  0  0  0
   -2.9223   -4.5549    0.0000 H   0  0  0  0  0  0  0  0  0  0  0  0
   -1.9455   -1.6166    0.0000 H   0  0  0  0  0  0  0  0  0  0  0  0
   -4.6546   -1.6828    0.0000 H   0  0  0  0  0  0  0  0  0  0  0  0
   -3.9871    1.9303    0.0000 H   0  0  0  0  0  0  0  0  0  0  0  0
   -5.2771   -0.7782    0.0000 H   0  0  0  0  0  0  0  0  0  0  0  0
   -5.3413    2.5753    0.0000 H   0  0  0  0  0  0  0  0  0  0  0  0
   -6.6313   -0.1332    0.0000 H   0  0  0  0  0  0  0  0  0  0  0  0
   -7.3406    1.8661    0.0000 H   0  0  0  0  0  0  0  0  0  0  0  0
   -1.0728   -1.0161    0.0000 H   0  0  0  0  0  0  0  0  0  0  0  0
   -1.3084    2.2958    0.0000 H   0  0  0  0  0  0  0  0  0  0  0  0
    1.1479    1.2490    0.0000 H   0  0  0  0  0  0  0  0  0  0  0  0
    0.2096    2.2467    0.0000 H   0  0  0  0  0  0  0  0  0  0  0  0
    1.1110    2.2649    0.0000 H   0  0  0  0  0  0  0  0  0  0  0  0
    2.9007    4.1825    0.0000 H   0  0  0  0  0  0  0  0  0  0  0  0
    5.6092    2.8925    0.0000 H   0  0  0  0  0  0  0  0  0  0  0  0
    7.0820    0.7522    0.0000 H   0  0  0  0  0  0  0  0  0  0  0  0
    7.3190   -2.2385    0.0000 H   0  0  0  0  0  0  0  0  0  0  0  0
    4.8476   -3.9391    0.0000 H   0  0  0  0  0  0  0  0  0  0  0  0
    2.1391   -2.6490    0.0000 H   0  0  0  0  0  0  0  0  0  0  0  0
  1  2  1  0
  1 21  1  0
  1 22  1  0
  1 23  1  0
  2  3  1  0
  2 24  1  0
  2 25  1  0
  3  4  1  0
  3  6  1  0
  4  5  1  0
  4 26  1  0
  4 27  1  0
  5 28  1  0
  5 29  1  0
  5 30  1  0
  6  7  2  0
  6  8  1  0
  8  9  1  0
  8 10  1  0
  8 31  1  6
  9 32  1  0
  9 33  1  0
  9 34  1  0
 10 11  1  0
 11 12  2  0
 11 20  1  0
 12 13  1  0
 12 35  1  0
 13 14  2  0
 13 36  1  0
 14 15  1  0
 14 37  1  0
 15 16  1  0
 15 20  2  0
 16 17  2  0
 16 38  1  0
 17 18  1  0
 17 39  1  0
 18 19  2  0
 18 40  1  0
 19 20  1  0
 19 41  1  0
M  END
$$$$

     RDKit          2D

 26 25  0  0  0  0  0  0  0  0999 V2000
    3.3498    0.8063    0.0000 C   0  0  0  0  0  0  0  0  0  0  0  0
    2.0004    1.4613    0.0000 C   0  0  0  0  0  0  0  0  0  0  0  0
    0.6510    2.1163    0.0000 O   0  0  0  0  0  0  0  0  0  0  0  0
   -0.5910    1.2751    0.0000 P   0  0  0  0  0  0  0  0  0  0  0  0
   -0.4835   -0.2210    0.0000 S   0  0  0  0  0  0  0  0  0  0  0  0
    0.7584    0.6201    0.0000 O   0  0  0  0  0  0  0  0  0  0  0  0
    0.8659   -0.8760    0.0000 C   0  0  0  0  0  0  0  0  0  0  0  0
    0.9734   -2.3721    0.0000 C   0  0  0  0  0  0  0  0  0  0  0  0
   -1.8330    0.4340    0.0000 O   0  0  0  0  0  0  0  0  0  0  0  0
   -3.1824    1.0890    0.0000 C   0  0  0  0  0  0  0  0  0  0  0  0
   -3.8374   -0.2604    0.0000 C   0  0  0  0  0  0  0  0  0  0  0  0
   -4.4924   -1.6099    0.0000 Cl  0  0  0  0  0  0  0  0  0  0  0  0
   -5.1868    0.3946    0.0000 Cl  0  0  0  0  0  0  0  0  0  0  0  0
   -2.4880   -0.9154    0.0000 Cl  0  0  0  0  0  0  0  0  0  0  0  0
   -4.5318    1.7440    0.0000 Cl  0  0  0  0  0  0  0  0  0  0  0  0
    4.0048    2.1557    0.0000 H   0  0  0  0  0  0  0  0  0  0  0  0
    2.9565   -0.3433    0.0000 H   0  0  0  0  0  0  0  0  0  0  0  0
    4.6993    0.1513    0.0000 H   0  0  0  0  0  0  0  0  0  0  0  0
    2.6554    2.8107    0.0000 H   0  0  0  0  0  0  0  0  0  0  0  0
    1.6914   -0.0065    0.0000 H   0  0  0  0  0  0  0  0  0  0  0  0
    2.0794   -0.9373    0.0000 H   0  0  0  0  0  0  0  0  0  0  0  0
   -0.5598   -1.3423    0.0000 H   0  0  0  0  0  0  0  0  0  0  0  0
   -0.5228   -2.4796    0.0000 H   0  0  0  0  0  0  0  0  0  0  0  0
    2.4695   -2.2647    0.0000 H   0  0  0  0  0  0  0  0  0  0  0  0
    1.0809   -3.8683    0.0000 H   0  0  0  0  0  0  0  0  0  0  0  0
   -2.5274    2.4384    0.0000 H   0  0  0  0  0  0  0  0  0  0  0  0
  1  2  1  0
  1 16  1  0
  1 17  1  0
  1 18  1  0
  2  3  1  0
  2 19  1  0
  2 20  1  0
  3  4  1  0
  4  5  2  0
  4  6  1  0
  4  9  1  0
  6  7  1  0
  7  8  1  0
  7 21  1  0
  7 22  1  0
  8 23  1  0
  8 24  1  0
  8 25  1  0
  9 10  1  0
 10 11  1  0
 10 15  1  0
 10 26  1  6
 11 12  1  0
 11 13  1  0
 11 14  1  0
M  END
$$$$

     RDKit          2D

 31 31  0  0  0  0  0  0  0  0999 V2000
    2.3633   -1.9701    0.0000 C   0  0  0  0  0  0  0  0  0  0  0  0
    2.7364   -0.5172    0.0000 C   0  0  0  0  0  0  0  0  0  0  0  0
    1.2836   -0.1441    0.0000 C   0  0  0  0  0  0  0  0  0  0  0  0
   -0.1693    0.2289    0.0000 C   0  0  0  0  0  0  0  0  0  0  0  0
   -1.2188   -0.8427    0.0000 C   0  0  0  0  0  0  0  0  0  0  0  0
   -2.6717   -0.4696    0.0000 C   0  0  0  0  0  0  0  0  0  0  0  0
   -3.0750    0.9751    0.0000 C   0  0  0  0  0  0  0  0  0  0  0  0
   -2.0255    2.0468    0.0000 C   0  0  0  0  0  0  0  0  0  0  0  0
   -0.5726    1.6737    0.0000 C   0  0  0  0  0  0  0  0  0  0  0  0
    0.4769    2.7454    0.0000 O   0  0  0  0  0  0  0  0  0  0  0  0
    1.9298    2.3723    0.0000 C   0  0  0  0  0  0  0  0  0  0  0  0
   -4.5279    1.3482    0.0000 Br  0  0  0  0  0  0  0  0  0  0  0  0
   -3.7212   -1.5413    0.0000 O   0  0  0  0  0  0  0  0  0  0  0  0
   -5.1741   -1.1682    0.0000 C   0  0  0  0  0  0  0  0  0  0  0  0
    4.1893   -0.8903    0.0000 N   0  0  0  0  0  0  0  0  0  0  0  0
    3.7599   -2.5175    0.0000 H   0  0  0  0  0  0  0  0  0  0  0  0
    1.4850   -1.8560    0.0000 H   0  0  0  0  0  0  0  0  0  0  0  0
    1.9902   -3.4230    0.0000 H   0  0  0  0  0  0  0  0  0  0  0  0
    3.1095    0.9356    0.0000 H   0  0  0  0  0  0  0  0  0  0  0  0
    0.9603   -0.9688    0.0000 H   0  0  0  0  0  0  0  0  0  0  0  0
    1.5745    0.5980    0.0000 H   0  0  0  0  0  0  0  0  0  0  0  0
   -0.8155   -2.2875    0.0000 H   0  0  0  0  0  0  0  0  0  0  0  0
   -2.4288    3.4915    0.0000 H   0  0  0  0  0  0  0  0  0  0  0  0
    2.3028    3.8252    0.0000 H   0  0  0  0  0  0  0  0  0  0  0  0
    1.8271    1.5818    0.0000 H   0  0  0  0  0  0  0  0  0  0  0  0
    3.3826    1.9992    0.0000 H   0  0  0  0  0  0  0  0  0  0  0  0
   -5.5472   -2.6211    0.0000 H   0  0  0  0  0  0  0  0  0  0  0  0
   -4.8010    0.2846    0.0000 H   0  0  0  0  0  0  0  0  0  0  0  0
   -6.6270   -0.7951    0.0000 H   0  0  0  0  0  0  0  0  0  0  0  0
    5.2388    0.1814    0.0000 H   0  0  0  0  0  0  0  0  0  0  0  0
    4.7657   -2.2751    0.0000 H   0  0  0  0  0  0  0  0  0  0  0  0
  1  2  1  0
  1 16  1  0
  1 17  1  0
  1 18  1  0
  2  3  1  0
  2 15  1  0
  2 19  1  6
  3  4  1  0
  3 20  1  0
  3 21  1  0
  4  5  2  0
  4  9  1  0
  5  6  1  0
  5 22  1  0
  6  7  2  0
  6 13  1  0
  7  8  1  0
  7 12  1  0
  8  9  2  0
  8 23  1  0
  9 10  1  0
 10 11  1  0
 11 24  1  0
 11 25  1  0
 11 26  1  0
 13 14  1  0
 14 27  1  0
 14 28  1  0
 14 29  1  0
 15 30  1  0
 15 31  1  0
M  END
$$$$

     RDKit          2D

 43 44  0  0  0  0  0  0  0  0999 V2000
   -9.3988   -1.4913    0.0000 C   0  0  0  0  0  0  0  0  0  0  0  0
   -7.9324   -1.1757    0.0000 C   0  0  0  0  0  0  0  0  0  0  0  0
   -6.4660   -0.8600    0.0000 O   0  0  0  0  0  0  0  0  0  0  0  0
   -6.0061    0.5678    0.0000 C   0  0  0  0  0  0  0  0  0  0  0  0
   -7.0127    1.6799    0.0000 O   0  0  0  0  0  0  0  0  0  0  0  0
   -4.5397    0.8834    0.0000 C   0  0  0  0  0  0  0  0  0  0  0  0
   -3.0733    1.1991    0.0000 O   0  0  0  0  0  0  0  0  0  0  0  0
   -2.0667    0.0870    0.0000 C   0  0  0  0  0  0  0  0  0  0  0  0
   -2.5266   -1.3408    0.0000 O   0  0  0  0  0  0  0  0  0  0  0  0
   -0.6003    0.4026    0.0000 C   0  0  0  0  0  0  0  0  0  0  0  0
   -0.1405    1.8304    0.0000 C   0  0  0  0  0  0  0  0  0  0  0  0
    1.3259    2.1460    0.0000 C   0  0  0  0  0  0  0  0  0  0  0  0
    2.3325    1.0339    0.0000 C   0  0  0  0  0  0  0  0  0  0  0  0
    1.8727   -0.3939    0.0000 C   0  0  0  0  0  0  0  0  0  0  0  0
    0.4063   -0.7095    0.0000 C   0  0  0  0  0  0  0  0  0  0  0  0
    2.8792   -1.5060    0.0000 O   0  0  0  0  0  0  0  0  0  0  0  0
    4.3457   -1.1903    0.0000 C   0  0  0  0  0  0  0  0  0  0  0  0
    5.3522   -2.3024    0.0000 C   0  0  0  0  0  0  0  0  0  0  0  0
    6.8186   -1.9868    0.0000 C   0  0  0  0  0  0  0  0  0  0  0  0
    7.2785   -0.5590    0.0000 C   0  0  0  0  0  0  0  0  0  0  0  0
    6.2719    0.5531    0.0000 C   0  0  0  0  0  0  0  0  0  0  0  0
    4.8055    0.2375    0.0000 C   0  0  0  0  0  0  0  0  0  0  0  0
    8.7449   -0.2434    0.0000 C   0  0  0  0  0  0  0  0  0  0  0  0
   10.2113    0.0723    0.0000 F   0  0  0  0  0  0  0  0  0  0  0  0
    8.4292    1.2231    0.0000 F   0  0  0  0  0  0  0  0  0  0  0  0
    9.0605   -1.7098    0.0000 F   0  0  0  0  0  0  0  0  0  0  0  0
    4.8924   -3.7302    0.0000 Cl  0  0  0  0  0  0  0  0  0  0  0  0
   -1.1470    2.9425    0.0000 N   0  0  0  0  0  0  0  0  0  0  0  0
   -2.6135    2.6269    0.0000 O   0  0  0  0  0  0  0  0  0  0  0  0
   -0.6872    4.3703    0.0000 O   0  0  0  0  0  0  0  0  0  0  0  0
   -9.7144   -0.0249    0.0000 H   0  0  0  0  0  0  0  0  0  0  0  0
   -9.0831   -2.9577    0.0000 H   0  0  0  0  0  0  0  0  0  0  0  0
  -10.8652   -1.8070    0.0000 H   0  0  0  0  0  0  0  0  0  0  0  0
   -7.6167   -2.6421    0.0000 H   0  0  0  0  0  0  0  0  0  0  0  0
   -8.2480    0.2907    0.0000 H   0  0  0  0  0  0  0  0  0  0  0  0
   -4.8554    2.3498    0.0000 H   0  0  0  0  0  0  0  0  0  0  0  0
   -4.2241   -0.5830    0.0000 H   0  0  0  0  0  0  0  0  0  0  0  0
    1.7858    3.5738    0.0000 H   0  0  0  0  0  0  0  0  0  0  0  0
    3.2622    1.3568    0.0000 H   0  0  0  0  0  0  0  0  0  0  0  0
   -0.0536   -2.1373    0.0000 H   0  0  0  0  0  0  0  0  0  0  0  0
    7.8252   -3.0989    0.0000 H   0  0  0  0  0  0  0  0  0  0  0  0
    6.7317    1.9809    0.0000 H   0  0  0  0  0  0  0  0  0  0  0  0
    4.2389    1.0422    0.0000 H   0  0  0  0  0  0  0  0  0  0  0  0
  1  2  1  0
  1 31  1  0
  1 32  1  0
  1 33  1  0
  2  3  1  0
  2 34  1  0
  2 35  1  0
  3  4  1  0
  4  5  2  0
  4  6  1  0
  6  7  1  0
  6 36  1  0
  6 37  1  0
  7  8  1  0
  8  9  2  0
  8 10  1  0
 10 11  2  0
 10 15  1  0
 11 12  1  0
 11 28  1  0
 12 13  2  0
 12 38  1  0
 13 14  1  0
 13 39  1  0
 14 15  2  0
 14 16  1  0
 15 40  1  0
 16 17  1  0
 17 18  2  0
 17 22  1  0
 18 19  1  0
 18 27  1  0
 19 20  2  0
 19 41  1  0
 20 21  1  0
 20 23  1  0
 21 22  2  0
 21 42  1  0
 22 43  1  0
 23 24  1  0
 23 25  1  0
 23 26  1  0
 28 29  2  0
 28 30  1  0
M  CHG  2  28   1  30  -1
M  END
$$$$

     RDKit          2D

 19 19  0  0  0  0  0  0  0  0999 V2000
    1.4605   -1.2990    0.0000 C   0  0  0  0  0  0  0  0  0  0  0  0
   -0.0395   -1.2990    0.0000 C   0  0  0  0  0  0  0  0  0  0  0  0
   -0.7895    0.0000    0.0000 C   0  0  0  0  0  0  0  0  0  0  0  0
   -0.0395    1.2990    0.0000 C   0  0  0  0  0  0  0  0  0  0  0  0
    1.4605    1.2990    0.0000 C   0  0  0  0  0  0  0  0  0  0  0  0
    2.2105   -0.0000    0.0000 C   0  0  0  0  0  0  0  0  0  0  0  0
    3.7105    0.0000    0.0000 N   0  0  0  0  0  0  0  0  0  0  0  0
   -2.2895    0.0000    0.0000 S   0  0  0  0  0  0  0  0  0  0  0  0
   -2.2895    1.5000    0.0000 O   0  0  0  0  0  0  0  0  0  0  0  0
   -2.2895   -1.5000    0.0000 O   0  0  0  0  0  0  0  0  0  0  0  0
   -3.7895    0.0000    0.0000 N   0  0  0  0  0  0  0  0  0  0  0  0
    2.2105   -2.5981    0.0000 H   0  0  0  0  0  0  0  0  0  0  0  0
   -0.7895   -2.5981    0.0000 H   0  0  0  0  0  0  0  0  0  0  0  0
   -0.7895    2.5981    0.0000 H   0  0  0  0  0  0  0  0  0  0  0  0
    2.2105    2.5981    0.0000 H   0  0  0  0  0  0  0  0  0  0  0  0
    4.4605   -1.2990    0.0000 H   0  0  0  0  0  0  0  0  0  0  0  0
    4.4605    1.2990    0.0000 H   0  0  0  0  0  0  0  0  0  0  0  0
   -4.5395   -1.2990    0.0000 H   0  0  0  0  0  0  0  0  0  0  0  0
   -4.5395    1.2990    0.0000 H   0  0  0  0  0  0  0  0  0  0  0  0
  1  2  2  0
  1  6  1  0
  1 12  1  0
  2  3  1  0
  2 13  1  0
  3  4  2  0
  3  8  1  0
  4  5  1  0
  4 14  1  0
  5  6  2  0
  5 15  1  0
  6  7  1  0
  7 16  1  0
  7 17  1  0
  8  9  2  0
  8 10  2  0
  8 11  1  0
 11 18  1  0
 11 19  1  0
M  END
$$$$

     RDKit          2D

 43 44  0  0  0  0  0  0  0  0999 V2000
   -2.4565   -2.5377    0.0000 C   0  0  0  0  0  0  0  0  0  0  0  0
   -2.6211   -1.0468    0.0000 C   0  0  0  0  0  0  0  0  0  0  0  0
   -2.7857    0.4441    0.0000 C   0  0  0  0  0  0  0  0  0  0  0  0
   -4.1120   -1.2114    0.0000 C   0  0  0  0  0  0  0  0  0  0  0  0
   -1.1302   -0.8822    0.0000 C   0  0  0  0  0  0  0  0  0  0  0  0
    0.3608   -0.7175    0.0000 C   0  0  0  0  0  0  0  0  0  0  0  0
    1.8517   -0.5529    0.0000 C   0  0  0  0  0  0  0  0  0  0  0  0
    3.3427   -0.3883    0.0000 C   0  0  0  0  0  0  0  0  0  0  0  0
    4.2307   -1.5971    0.0000 C   0  0  0  0  0  0  0  0  0  0  0  0
    5.7216   -1.4325    0.0000 C   0  0  0  0  0  0  0  0  0  0  0  0
    6.3245   -0.0590    0.0000 C   0  0  0  0  0  0  0  0  0  0  0  0
    5.4365    1.1499    0.0000 C   0  0  0  0  0  0  0  0  0  0  0  0
    3.9455    0.9853    0.0000 C   0  0  0  0  0  0  0  0  0  0  0  0
    7.8155    0.1057    0.0000 Cl  0  0  0  0  0  0  0  0  0  0  0  0
   -1.2948    0.6088    0.0000 C   0  0  0  0  0  0  0  0  0  0  0  0
   -1.4594    2.0997    0.0000 N   0  0  0  0  0  0  0  0  0  0  0  0
   -2.7624    2.8429    0.0000 C   0  0  0  0  0  0  0  0  0  0  0  0
   -2.4582    4.3117    0.0000 N   0  0  0  0  0  0  0  0  0  0  0  0
   -0.9673    4.4763    0.0000 C   0  0  0  0  0  0  0  0  0  0  0  0
   -0.3500    3.1093    0.0000 N   0  0  0  0  0  0  0  0  0  0  0  0
   -0.9655   -2.3731    0.0000 O   0  0  0  0  0  0  0  0  0  0  0  0
   -3.9162   -2.8829    0.0000 H   0  0  0  0  0  0  0  0  0  0  0  0
   -1.6665   -2.6446    0.0000 H   0  0  0  0  0  0  0  0  0  0  0  0
   -2.4748   -4.0376    0.0000 H   0  0  0  0  0  0  0  0  0  0  0  0
   -4.2856    0.4625    0.0000 H   0  0  0  0  0  0  0  0  0  0  0  0
   -1.3789    0.9647    0.0000 H   0  0  0  0  0  0  0  0  0  0  0  0
   -2.9504    1.9351    0.0000 H   0  0  0  0  0  0  0  0  0  0  0  0
   -4.4572    0.2483    0.0000 H   0  0  0  0  0  0  0  0  0  0  0  0
   -4.1304   -2.7113    0.0000 H   0  0  0  0  0  0  0  0  0  0  0  0
   -5.6030   -1.3761    0.0000 H   0  0  0  0  0  0  0  0  0  0  0  0
    0.3791    0.7824    0.0000 H   0  0  0  0  0  0  0  0  0  0  0  0
    0.5254   -2.2085    0.0000 H   0  0  0  0  0  0  0  0  0  0  0  0
    1.6871    0.9380    0.0000 H   0  0  0  0  0  0  0  0  0  0  0  0
    2.0164   -2.0438    0.0000 H   0  0  0  0  0  0  0  0  0  0  0  0
    3.6278   -2.9706    0.0000 H   0  0  0  0  0  0  0  0  0  0  0  0
    6.6097   -2.6414    0.0000 H   0  0  0  0  0  0  0  0  0  0  0  0
    6.0394    2.5234    0.0000 H   0  0  0  0  0  0  0  0  0  0  0  0
    3.0575    2.1941    0.0000 H   0  0  0  0  0  0  0  0  0  0  0  0
    0.1650    0.9539    0.0000 H   0  0  0  0  0  0  0  0  0  0  0  0
   -2.7813    0.8098    0.0000 H   0  0  0  0  0  0  0  0  0  0  0  0
   -4.1295    2.2256    0.0000 H   0  0  0  0  0  0  0  0  0  0  0  0
   -0.2242    5.7793    0.0000 H   0  0  0  0  0  0  0  0  0  0  0  0
   -1.7758   -3.6354    0.0000 H   0  0  0  0  0  0  0  0  0  0  0  0
  1  2  1  0
  1 22  1  0
  1 23  1  0
  1 24  1  0
  2  3  1  0
  2  4  1  0
  2  5  1  0
  3 25  1  0
  3 26  1  0
  3 27  1  0
  4 28  1  0
  4 29  1  0
  4 30  1  0
  5  6  1  0
  5 15  1  0
  5 21  1  1
  6  7  1  0
  6 31  1  0
  6 32  1  0
  7  8  1  0
  7 33  1  0
  7 34  1  0
  8  9  2  0
  8 13  1  0
  9 10  1  0
  9 35  1  0
 10 11  2  0
 10 36  1  0
 11 12  1  0
 11 14  1  0
 12 13  2  0
 12 37  1  0
 13 38  1  0
 15 16  1  0
 15 39  1  0
 15 40  1  0
 16 17  1  0
 16 20  1  0
 17 18  2  0
 17 41  1  0
 18 19  1  0
 19 20  2  0
 19 42  1  0
 21 43  1  0
M  END
$$$$

     RDKit          2D

 31 32  0  0  0  0  0  0  0  0999 V2000
   -4.2472   -1.3344    0.0000 C   0  0  0  0  0  0  0  0  0  0  0  0
   -2.8806   -1.9527    0.0000 C   0  0  0  0  0  0  0  0  0  0  0  0
   -1.6618   -1.0783    0.0000 C   0  0  0  0  0  0  0  0  0  0  0  0
   -1.8097    0.4144    0.0000 C   0  0  0  0  0  0  0  0  0  0  0  0
   -3.1763    1.0327    0.0000 C   0  0  0  0  0  0  0  0  0  0  0  0
   -4.3951    0.1583    0.0000 C   0  0  0  0  0  0  0  0  0  0  0  0
   -5.7617    0.7766    0.0000 C   0  0  0  0  0  0  0  0  0  0  0  0
   -7.1284    1.3949    0.0000 F   0  0  0  0  0  0  0  0  0  0  0  0
   -6.3800   -0.5901    0.0000 F   0  0  0  0  0  0  0  0  0  0  0  0
   -5.1434    2.1432    0.0000 F   0  0  0  0  0  0  0  0  0  0  0  0
   -1.0859    1.0813    0.0000 Cl  0  0  0  0  0  0  0  0  0  0  0  0
   -0.2951   -1.6965    0.0000 O   0  0  0  0  0  0  0  0  0  0  0  0
    0.9236   -0.8221    0.0000 C   0  0  0  0  0  0  0  0  0  0  0  0
    2.2903   -1.4404    0.0000 C   0  0  0  0  0  0  0  0  0  0  0  0
    3.5091   -0.5660    0.0000 C   0  0  0  0  0  0  0  0  0  0  0  0
    3.3612    0.9267    0.0000 C   0  0  0  0  0  0  0  0  0  0  0  0
    1.9945    1.5450    0.0000 C   0  0  0  0  0  0  0  0  0  0  0  0
    0.7758    0.6706    0.0000 C   0  0  0  0  0  0  0  0  0  0  0  0
    4.5800    1.8011    0.0000 N   0  0  0  0  0  0  0  0  0  0  0  0
    5.9466    1.1828    0.0000 O   0  0  0  0  0  0  0  0  0  0  0  0
    4.4321    3.2938    0.0000 O   0  0  0  0  0  0  0  0  0  0  0  0
    4.8757   -1.1843    0.0000 C   0  0  0  0  0  0  0  0  0  0  0  0
    5.0236   -2.6770    0.0000 O   0  0  0  0  0  0  0  0  0  0  0  0
    6.0945   -0.3099    0.0000 O   0  0  0  0  0  0  0  0  0  0  0  0
   -5.4660   -2.2088    0.0000 H   0  0  0  0  0  0  0  0  0  0  0  0
   -2.7327   -3.4454    0.0000 H   0  0  0  0  0  0  0  0  0  0  0  0
   -3.3242    2.5254    0.0000 H   0  0  0  0  0  0  0  0  0  0  0  0
    2.4382   -2.9331    0.0000 H   0  0  0  0  0  0  0  0  0  0  0  0
    1.8467    3.0377    0.0000 H   0  0  0  0  0  0  0  0  0  0  0  0
   -0.0648    1.1825    0.0000 H   0  0  0  0  0  0  0  0  0  0  0  0
    7.4611   -0.9282    0.0000 H   0  0  0  0  0  0  0  0  0  0  0  0
  1  2  2  0
  1  6  1  0
  1 25  1  0
  2  3  1  0
  2 26  1  0
  3  4  2  0
  3 12  1  0
  4  5  1  0
  4 11  1  0
  5  6  2  0
  5 27  1  0
  6  7  1  0
  7  8  1  0
  7  9  1  0
  7 10  1  0
 12 13  1  0
 13 14  2  0
 13 18  1  0
 14 15  1  0
 14 28  1  0
 15 16  2  0
 15 22  1  0
 16 17  1  0
 16 19  1  0
 17 18  2  0
 17 29  1  0
 18 30  1  0
 19 20  2  0
 19 21  1  0
 22 23  2  0
 22 24  1  0
 24 31  1  0
M  CHG  2  19   1  21  -1
M  END
$$$$

     RDKit          2D

 41 41  0  0  0  0  0  0  0  0999 V2000
   -3.3732    2.6621    0.0000 C   0  0  0  0  0  0  0  0  0  0  0  0
   -2.9707    1.2171    0.0000 C   0  0  0  0  0  0  0  0  0  0  0  0
   -2.5681   -0.2279    0.0000 C   0  0  0  0  0  0  0  0  0  0  0  0
   -3.6182   -1.2990    0.0000 C   0  0  0  0  0  0  0  0  0  0  0  0
   -3.2157   -2.7439    0.0000 C   0  0  0  0  0  0  0  0  0  0  0  0
   -1.7630   -3.1178    0.0000 C   0  0  0  0  0  0  0  0  0  0  0  0
   -0.7129   -2.0467    0.0000 C   0  0  0  0  0  0  0  0  0  0  0  0
   -1.1155   -0.6017    0.0000 C   0  0  0  0  0  0  0  0  0  0  0  0
   -0.0654    0.4694    0.0000 N   0  0  0  0  0  0  0  0  0  0  0  0
    1.3873    0.0955    0.0000 C   0  0  0  0  0  0  0  0  0  0  0  0
    1.0134   -1.3572    0.0000 C   0  0  0  0  0  0  0  0  0  0  0  0
    2.8400   -0.2784    0.0000 C   0  0  0  0  0  0  0  0  0  0  0  0
    4.2926   -0.6522    0.0000 O   0  0  0  0  0  0  0  0  0  0  0  0
    5.3427    0.4189    0.0000 C   0  0  0  0  0  0  0  0  0  0  0  0
   -0.4679    1.9143    0.0000 C   0  0  0  0  0  0  0  0  0  0  0  0
   -1.9206    2.2882    0.0000 O   0  0  0  0  0  0  0  0  0  0  0  0
    0.5822    2.9854    0.0000 C   0  0  0  0  0  0  0  0  0  0  0  0
    1.6323    4.0566    0.0000 Cl  0  0  0  0  0  0  0  0  0  0  0  0
    0.7397   -2.4206    0.0000 C   0  0  0  0  0  0  0  0  0  0  0  0
   -4.8182    2.2595    0.0000 H   0  0  0  0  0  0  0  0  0  0  0  0
   -1.9881    3.2378    0.0000 H   0  0  0  0  0  0  0  0  0  0  0  0
   -3.7758    4.1071    0.0000 H   0  0  0  0  0  0  0  0  0  0  0  0
   -1.4874    1.4405    0.0000 H   0  0  0  0  0  0  0  0  0  0  0  0
   -4.4157    0.8146    0.0000 H   0  0  0  0  0  0  0  0  0  0  0  0
   -5.0709   -0.9251    0.0000 H   0  0  0  0  0  0  0  0  0  0  0  0
   -4.2658   -3.8150    0.0000 H   0  0  0  0  0  0  0  0  0  0  0  0
   -1.3605   -4.5628    0.0000 H   0  0  0  0  0  0  0  0  0  0  0  0
    1.9355    1.4917    0.0000 H   0  0  0  0  0  0  0  0  0  0  0  0
   -0.0709   -1.2157    0.0000 H   0  0  0  0  0  0  0  0  0  0  0  0
    0.2215   -1.4484    0.0000 H   0  0  0  0  0  0  0  0  0  0  0  0
    1.0022   -2.8571    0.0000 H   0  0  0  0  0  0  0  0  0  0  0  0
    2.4661   -1.7310    0.0000 H   0  0  0  0  0  0  0  0  0  0  0  0
    3.2138    1.1743    0.0000 H   0  0  0  0  0  0  0  0  0  0  0  0
    6.4138   -0.6313    0.0000 H   0  0  0  0  0  0  0  0  0  0  0  0
    4.2716    1.4690    0.0000 H   0  0  0  0  0  0  0  0  0  0  0  0
    6.3928    1.4900    0.0000 H   0  0  0  0  0  0  0  0  0  0  0  0
    1.7733    2.0737    0.0000 H   0  0  0  0  0  0  0  0  0  0  0  0
   -0.4889    4.0356    0.0000 H   0  0  0  0  0  0  0  0  0  0  0  0
    1.4540   -1.1016    0.0000 H   0  0  0  0  0  0  0  0  0  0  0  0
    0.3659   -3.8732    0.0000 H   0  0  0  0  0  0  0  0  0  0  0  0
    2.1924   -2.7945    0.0000 H   0  0  0  0  0  0  0  0  0  0  0  0
  1  2  1  0
  1 20  1  0
  1 21  1  0
  1 22  1  0
  2  3  1  0
  2 23  1  0
  2 24  1  0
  3  4  2  0
  3  8  1  0
  4  5  1  0
  4 25  1  0
  5  6  2  0
  5 26  1  0
  6  7  1  0
  6 27  1  0
  7  8  2  0
  7 19  1  0
  8  9  1  0
  9 10  1  0
  9 15  1  0
 10 11  1  0
 10 12  1  0
 10 28  1  1
 11 29  1  0
 11 30  1  0
 11 31  1  0
 12 13  1  0
 12 32  1  0
 12 33  1  0
 13 14  1  0
 14 34  1  0
 14 35  1  0
 14 36  1  0
 15 16  2  0
 15 17  1  0
 17 18  1  0
 17 37  1  0
 17 38  1  0
 19 39  1  0
 19 40  1  0
 19 41  1  0
M  END
$$$$

     RDKit          2D

 48 48  0  0  0  0  0  0  0  0999 V2000
  -10.4548    0.0100    0.0000 C   0  0  0  0  0  0  0  0  0  0  0  0
   -8.9551    0.0357    0.0000 C   0  0  0  0  0  0  0  0  0  0  0  0
   -7.4553    0.0615    0.0000 C   0  0  0  0  0  0  0  0  0  0  0  0
   -5.9555    0.0872    0.0000 C   0  0  0  0  0  0  0  0  0  0  0  0
   -4.4557    0.1130    0.0000 C   0  0  0  0  0  0  0  0  0  0  0  0
   -2.9559    0.1387    0.0000 C   0  0  0  0  0  0  0  0  0  0  0  0
   -1.4562    0.1645    0.0000 C   0  0  0  0  0  0  0  0  0  0  0  0
    0.0436    0.1902    0.0000 C   0  0  0  0  0  0  0  0  0  0  0  0
    1.5434    0.2160    0.0000 C   0  0  0  0  0  0  0  0  0  0  0  0
    2.2710    1.5277    0.0000 O   0  0  0  0  0  0  0  0  0  0  0  0
    2.3156   -1.0700    0.0000 N   0  0  0  0  0  0  0  0  0  0  0  0
    3.8154   -1.0443    0.0000 C   0  0  0  0  0  0  0  0  0  0  0  0
    5.3151   -1.0185    0.0000 C   0  0  0  0  0  0  0  0  0  0  0  0
    6.0427    0.2932    0.0000 C   0  0  0  0  0  0  0  0  0  0  0  0
    7.5425    0.3189    0.0000 C   0  0  0  0  0  0  0  0  0  0  0  0
    8.3147   -0.9670    0.0000 C   0  0  0  0  0  0  0  0  0  0  0  0
    7.5871   -2.2787    0.0000 C   0  0  0  0  0  0  0  0  0  0  0  0
    6.0873   -2.3045    0.0000 C   0  0  0  0  0  0  0  0  0  0  0  0
    9.8145   -0.9413    0.0000 O   0  0  0  0  0  0  0  0  0  0  0  0
    8.2701    1.6307    0.0000 O   0  0  0  0  0  0  0  0  0  0  0  0
    7.4979    2.9166    0.0000 C   0  0  0  0  0  0  0  0  0  0  0  0
  -10.4291   -1.4898    0.0000 H   0  0  0  0  0  0  0  0  0  0  0  0
  -10.4806    1.5098    0.0000 H   0  0  0  0  0  0  0  0  0  0  0  0
  -11.9546   -0.0157    0.0000 H   0  0  0  0  0  0  0  0  0  0  0  0
   -8.9808    1.5355    0.0000 H   0  0  0  0  0  0  0  0  0  0  0  0
   -8.9293   -1.4640    0.0000 H   0  0  0  0  0  0  0  0  0  0  0  0
   -7.4295   -1.4383    0.0000 H   0  0  0  0  0  0  0  0  0  0  0  0
   -7.4810    1.5613    0.0000 H   0  0  0  0  0  0  0  0  0  0  0  0
   -5.9812    1.5870    0.0000 H   0  0  0  0  0  0  0  0  0  0  0  0
   -5.9298   -1.4125    0.0000 H   0  0  0  0  0  0  0  0  0  0  0  0
   -4.4300   -1.3868    0.0000 H   0  0  0  0  0  0  0  0  0  0  0  0
   -4.4815    1.6128    0.0000 H   0  0  0  0  0  0  0  0  0  0  0  0
   -2.9817    1.6385    0.0000 H   0  0  0  0  0  0  0  0  0  0  0  0
   -2.9302   -1.3610    0.0000 H   0  0  0  0  0  0  0  0  0  0  0  0
   -1.4304   -1.3353    0.0000 H   0  0  0  0  0  0  0  0  0  0  0  0
   -1.4819    1.6643    0.0000 H   0  0  0  0  0  0  0  0  0  0  0  0
    0.0179    1.6900    0.0000 H   0  0  0  0  0  0  0  0  0  0  0  0
    0.0694   -1.3096    0.0000 H   0  0  0  0  0  0  0  0  0  0  0  0
    1.5880   -2.3817    0.0000 H   0  0  0  0  0  0  0  0  0  0  0  0
    3.8411   -2.5440    0.0000 H   0  0  0  0  0  0  0  0  0  0  0  0
    3.7896    0.4555    0.0000 H   0  0  0  0  0  0  0  0  0  0  0  0
    5.2705    1.5792    0.0000 H   0  0  0  0  0  0  0  0  0  0  0  0
    8.3593   -3.5647    0.0000 H   0  0  0  0  0  0  0  0  0  0  0  0
    5.3597   -3.6162    0.0000 H   0  0  0  0  0  0  0  0  0  0  0  0
   10.5421    0.3704    0.0000 H   0  0  0  0  0  0  0  0  0  0  0  0
    8.7839    3.6888    0.0000 H   0  0  0  0  0  0  0  0  0  0  0  0
    6.2119    2.1445    0.0000 H   0  0  0  0  0  0  0  0  0  0  0  0
    6.7257    4.2026    0.0000 H   0  0  0  0  0  0  0  0  0  0  0  0
  1  2  1  0
  1 22  1  0
  1 23  1  0
  1 24  1  0
  2  3  1  0
  2 25  1  0
  2 26  1  0
  3  4  1  0
  3 27  1  0
  3 28  1  0
  4  5  1  0
  4 29  1  0
  4 30  1  0
  5  6  1  0
  5 31  1  0
  5 32  1  0
  6  7  1  0
  6 33  1  0
  6 34  1  0
  7  8  1  0
  7 35  1  0
  7 36  1  0
  8  9  1  0
  8 37  1  0
  8 38  1  0
  9 10  2  0
  9 11  1  0
 11 12  1  0
 11 39  1  0
 12 13  1  0
 12 40  1  0
 12 41  1  0
 13 14  2  0
 13 18  1  0
 14 15  1  0
 14 42  1  0
 15 16  2  0
 15 20  1  0
 16 17  1  0
 16 19  1  0
 17 18  2  0
 17 43  1  0
 18 44  1  0
 19 45  1  0
 20 21  1  0
 21 46  1  0
 21 47  1  0
 21 48  1  0
M  END
$$$$

     RDKit          2D

 36 40  0  0  0  0  0  0  0  0999 V2000
   -5.4127   -0.7500    0.0000 C   0  0  0  0  0  0  0  0  0  0  0  0
   -5.4127    0.7500    0.0000 C   0  0  0  0  0  0  0  0  0  0  0  0
   -4.1136    1.5000    0.0000 C   0  0  0  0  0  0  0  0  0  0  0  0
   -2.8146    0.7500    0.0000 C   0  0  0  0  0  0  0  0  0  0  0  0
   -1.5155    1.5000    0.0000 C   0  0  0  0  0  0  0  0  0  0  0  0
   -0.2165    0.7500    0.0000 C   0  0  0  0  0  0  0  0  0  0  0  0
    1.0825    1.5000    0.0000 C   0  0  0  0  0  0  0  0  0  0  0  0
    1.0825    3.0000    0.0000 C   0  0  0  0  0  0  0  0  0  0  0  0
    2.3816    3.7500    0.0000 C   0  0  0  0  0  0  0  0  0  0  0  0
    3.6806    3.0000    0.0000 C   0  0  0  0  0  0  0  0  0  0  0  0
    3.6806    1.5000    0.0000 C   0  0  0  0  0  0  0  0  0  0  0  0
    2.3816    0.7500    0.0000 C   0  0  0  0  0  0  0  0  0  0  0  0
    2.3816   -0.7500    0.0000 C   0  0  0  0  0  0  0  0  0  0  0  0
    3.6806   -1.5000    0.0000 C   0  0  0  0  0  0  0  0  0  0  0  0
    3.6806   -3.0000    0.0000 C   0  0  0  0  0  0  0  0  0  0  0  0
    2.3816   -3.7500    0.0000 C   0  0  0  0  0  0  0  0  0  0  0  0
    1.0825   -3.0000    0.0000 C   0  0  0  0  0  0  0  0  0  0  0  0
    1.0825   -1.5000    0.0000 C   0  0  0  0  0  0  0  0  0  0  0  0
   -0.2165   -0.7500    0.0000 C   0  0  0  0  0  0  0  0  0  0  0  0
   -1.5155   -1.5000    0.0000 C   0  0  0  0  0  0  0  0  0  0  0  0
   -2.8146   -0.7500    0.0000 C   0  0  0  0  0  0  0  0  0  0  0  0
   -4.1136   -1.5000    0.0000 C   0  0  0  0  0  0  0  0  0  0  0  0
   -6.7117   -1.5000    0.0000 H   0  0  0  0  0  0  0  0  0  0  0  0
   -6.7117    1.5000    0.0000 H   0  0  0  0  0  0  0  0  0  0  0  0
   -4.1136    3.0000    0.0000 H   0  0  0  0  0  0  0  0  0  0  0  0
   -1.5155    3.0000    0.0000 H   0  0  0  0  0  0  0  0  0  0  0  0
   -0.2165    3.7500    0.0000 H   0  0  0  0  0  0  0  0  0  0  0  0
    2.3816    5.2500    0.0000 H   0  0  0  0  0  0  0  0  0  0  0  0
    4.9796    3.7500    0.0000 H   0  0  0  0  0  0  0  0  0  0  0  0
    4.9796    0.7500    0.0000 H   0  0  0  0  0  0  0  0  0  0  0  0
    4.9796   -0.7500    0.0000 H   0  0  0  0  0  0  0  0  0  0  0  0
    4.9796   -3.7500    0.0000 H   0  0  0  0  0  0  0  0  0  0  0  0
    2.3816   -5.2500    0.0000 H   0  0  0  0  0  0  0  0  0  0  0  0
   -0.2165   -3.7500    0.0000 H   0  0  0  0  0  0  0  0  0  0  0  0
   -1.5155   -3.0000    0.0000 H   0  0  0  0  0  0  0  0  0  0  0  0
   -4.1136   -3.0000    0.0000 H   0  0  0  0  0  0  0  0  0  0  0  0
  1  2  2  0
  1 22  1  0
  1 23  1  0
  2  3  1  0
  2 24  1  0
  3  4  2  0
  3 25  1  0
  4  5  1  0
  4 21  1  0
  5  6  2  0
  5 26  1  0
  6  7  1  0
  6 19  1  0
  7  8  2  0
  7 12  1  0
  8  9  1  0
  8 27  1  0
  9 10  2  0
  9 28  1  0
 10 11  1  0
 10 29  1  0
 11 12  2  0
 11 30  1  0
 12 13  1  0
 13 14  1  0
 13 18  2  0
 14 15  2  0
 14 31  1  0
 15 16  1  0
 15 32  1  0
 16 17  2  0
 16 33  1  0
 17 18  1  0
 17 34  1  0
 18 19  1  0
 19 20  2  0
 20 21  1  0
 20 35  1  0
 21 22  2  0
 22 36  1  0
M  END
$$$$

     RDKit          2D

 46 49  0  0  1  0  0  0  0  0999 V2000
   -3.5330    1.5971    0.0000 C   0  0  0  0  0  0  0  0  0  0  0  0
   -2.5423    0.4708    0.0000 C   0  0  0  0  0  0  0  0  0  0  0  0
   -1.9163    1.8339    0.0000 C   0  0  0  0  0  0  0  0  0  0  0  0
   -0.4228    1.9734    0.0000 C   0  0  0  0  0  0  0  0  0  0  0  0
    0.4447    0.7497    0.0000 C   0  0  0  0  0  0  0  0  0  0  0  0
   -0.1813   -0.6134    0.0000 C   0  0  0  0  0  0  0  0  0  0  0  0
   -1.6748   -0.7529    0.0000 C   0  0  0  0  0  0  0  0  0  0  0  0
   -2.5705   -1.9561    0.0000 C   0  0  0  0  0  0  0  0  0  0  0  0
   -3.9916   -1.4760    0.0000 C   0  0  0  0  0  0  0  0  0  0  0  0
   -3.9742    0.0239    0.0000 C   0  0  0  0  0  0  0  0  0  0  0  0
   -4.6669    0.4184    0.0000 O   0  0  0  0  0  0  0  0  0  0  0  0
    0.6863   -1.8371    0.0000 C   0  0  0  0  0  0  0  0  0  0  0  0
    2.1798   -1.6976    0.0000 C   0  0  0  0  0  0  0  0  0  0  0  0
    3.0473   -2.9213    0.0000 C   0  0  0  0  0  0  0  0  0  0  0  0
    2.8057   -0.3345    0.0000 C   0  0  0  0  0  0  0  0  0  0  0  0
    4.2992   -0.1950    0.0000 C   0  0  0  0  0  0  0  0  0  0  0  0
    4.9252    1.1681    0.0000 C   0  0  0  0  0  0  0  0  0  0  0  0
    6.4187    1.3076    0.0000 O   0  0  0  0  0  0  0  0  0  0  0  0
    4.0577    2.3918    0.0000 C   0  0  0  0  0  0  0  0  0  0  0  0
    2.5642    2.2523    0.0000 C   0  0  0  0  0  0  0  0  0  0  0  0
    1.9382    0.8892    0.0000 C   0  0  0  0  0  0  0  0  0  0  0  0
    1.3122   -0.4740    0.0000 C   0  0  0  0  0  0  0  0  0  0  0  0
   -4.1913    1.1475    0.0000 H   0  0  0  0  0  0  0  0  0  0  0  0
   -2.4067    2.5878    0.0000 H   0  0  0  0  0  0  0  0  0  0  0  0
   -4.5237    2.7234    0.0000 H   0  0  0  0  0  0  0  0  0  0  0  0
   -1.7943    3.3290    0.0000 H   0  0  0  0  0  0  0  0  0  0  0  0
   -3.2324    2.5536    0.0000 H   0  0  0  0  0  0  0  0  0  0  0  0
    0.8446    2.7757    0.0000 H   0  0  0  0  0  0  0  0  0  0  0  0
   -0.8195    3.4200    0.0000 H   0  0  0  0  0  0  0  0  0  0  0  0
    1.2322    2.0264    0.0000 H   0  0  0  0  0  0  0  0  0  0  0  0
   -0.8072   -1.9766    0.0000 H   0  0  0  0  0  0  0  0  0  0  0  0
   -1.1947    0.6682    0.0000 H   0  0  0  0  0  0  0  0  0  0  0  0
   -1.5037   -3.0106    0.0000 H   0  0  0  0  0  0  0  0  0  0  0  0
   -3.1965   -3.3192    0.0000 H   0  0  0  0  0  0  0  0  0  0  0  0
   -4.3205   -2.9395    0.0000 H   0  0  0  0  0  0  0  0  0  0  0  0
   -5.4815   -1.3019    0.0000 H   0  0  0  0  0  0  0  0  0  0  0  0
    1.0829   -3.2837    0.0000 H   0  0  0  0  0  0  0  0  0  0  0  0
   -0.4739   -2.7879    0.0000 H   0  0  0  0  0  0  0  0  0  0  0  0
    2.4213   -4.2845    0.0000 H   0  0  0  0  0  0  0  0  0  0  0  0
    4.5408   -2.7819    0.0000 H   0  0  0  0  0  0  0  0  0  0  0  0
    5.1668   -1.4187    0.0000 H   0  0  0  0  0  0  0  0  0  0  0  0
    4.6837    3.7549    0.0000 H   0  0  0  0  0  0  0  0  0  0  0  0
    1.6967    3.4760    0.0000 H   0  0  0  0  0  0  0  0  0  0  0  0
    2.2218   -1.6667    0.0000 H   0  0  0  0  0  0  0  0  0  0  0  0
   -0.1852   -0.5614    0.0000 H   0  0  0  0  0  0  0  0  0  0  0  0
    1.0347   -1.9481    0.0000 H   0  0  0  0  0  0  0  0  0  0  0  0
  1 23  1  0
  1 24  1  0
  1 25  1  0
  2  3  1  0
  2  7  1  0
  2 10  1  0
  2  1  1  1
  3  4  1  0
  3 26  1  0
  3 27  1  0
  4  5  1  0
  4 28  1  0
  4 29  1  0
  5  6  1  0
  5 21  1  0
  5 30  1  6
  6  7  1  0
  6 12  1  0
  6 31  1  1
  7  8  1  0
  7 32  1  6
  8  9  1  0
  8 33  1  0
  8 34  1  0
  9 10  1  0
  9 35  1  0
  9 36  1  0
 10 11  2  0
 12 13  1  0
 12 37  1  0
 12 38  1  0
 13 15  1  0
 13 14  2  0
 14 39  1  0
 14 40  1  0
 15 16  2  0
 15 21  1  0
 16 17  1  0
 16 41  1  0
 17 19  1  0
 17 18  2  0
 19 20  2  0
 19 42  1  0
 20 21  1  0
 20 43  1  0
 21 22  1  6
 22 44  1  0
 22 45  1  0
 22 46  1  0
M  END
$$$$

     RDKit          2D

 29 30  0  0  0  0  0  0  0  0999 V2000
   -2.5981    1.6667    0.0000 C   0  0  0  0  0  0  0  0  0  0  0  0
   -3.8971    0.9167    0.0000 C   0  0  0  0  0  0  0  0  0  0  0  0
   -3.8971   -0.5833    0.0000 C   0  0  0  0  0  0  0  0  0  0  0  0
   -2.5981   -1.3333    0.0000 C   0  0  0  0  0  0  0  0  0  0  0  0
   -1.2990   -0.5833    0.0000 C   0  0  0  0  0  0  0  0  0  0  0  0
    0.0000   -1.3333    0.0000 N   0  0  0  0  0  0  0  0  0  0  0  0
    1.2990   -0.5833    0.0000 C   0  0  0  0  0  0  0  0  0  0  0  0
    1.2990    0.9167    0.0000 C   0  0  0  0  0  0  0  0  0  0  0  0
    2.5981    1.6667    0.0000 C   0  0  0  0  0  0  0  0  0  0  0  0
    3.8971    0.9167    0.0000 C   0  0  0  0  0  0  0  0  0  0  0  0
    3.8971   -0.5833    0.0000 C   0  0  0  0  0  0  0  0  0  0  0  0
    2.5981   -1.3333    0.0000 C   0  0  0  0  0  0  0  0  0  0  0  0
    5.1962   -1.3333    0.0000 N   0  0  0  0  0  0  0  0  0  0  0  0
    0.0000    1.6667    0.0000 C   0  0  0  0  0  0  0  0  0  0  0  0
   -1.2990    0.9167    0.0000 C   0  0  0  0  0  0  0  0  0  0  0  0
   -5.1962   -1.3333    0.0000 N   0  0  0  0  0  0  0  0  0  0  0  0
   -0.7500    4.1667    0.0000 Cl  0  0  0  0  0  0  0  0  0  0  0  0
   -2.5981    3.1667    0.0000 H   0  0  0  0  0  0  0  0  0  0  0  0
   -5.1962    1.6667    0.0000 H   0  0  0  0  0  0  0  0  0  0  0  0
   -2.5981   -2.8333    0.0000 H   0  0  0  0  0  0  0  0  0  0  0  0
    2.5981    3.1667    0.0000 H   0  0  0  0  0  0  0  0  0  0  0  0
    5.1962    1.6667    0.0000 H   0  0  0  0  0  0  0  0  0  0  0  0
    2.5981   -2.8333    0.0000 H   0  0  0  0  0  0  0  0  0  0  0  0
    5.1962   -2.8333    0.0000 H   0  0  0  0  0  0  0  0  0  0  0  0
    6.4952   -0.5833    0.0000 H   0  0  0  0  0  0  0  0  0  0  0  0
    0.0000    3.1667    0.0000 H   0  0  0  0  0  0  0  0  0  0  0  0
   -5.1962   -2.8333    0.0000 H   0  0  0  0  0  0  0  0  0  0  0  0
   -6.4952   -0.5833    0.0000 H   0  0  0  0  0  0  0  0  0  0  0  0
    0.7500    4.1667    0.0000 H   0  0  0  0  0  0  0  0  0  0  0  0
  1  2  2  0
  1 15  1  0
  1 18  1  0
  2  3  1  0
  2 19  1  0
  3  4  2  0
  3 16  1  0
  4  5  1  0
  4 20  1  0
  5  6  1  0
  5 15  2  0
  6  7  2  0
  7  8  1  0
  7 12  1  0
  8  9  1  0
  8 14  2  0
  9 10  2  0
  9 21  1  0
 10 11  1  0
 10 22  1  0
 11 12  2  0
 11 13  1  0
 12 23  1  0
 13 24  1  0
 13 25  1  0
 14 15  1  0
 14 26  1  0
 16 27  1  0
 16 28  1  0
 17 29  1  0
M  END
$$$$

     RDKit          2D

 25 26  0  0  0  0  0  0  0  0999 V2000
   -4.6498   -0.3357    0.0000 C   0  0  0  0  0  0  0  0  0  0  0  0
   -4.1817    1.0894    0.0000 C   0  0  0  0  0  0  0  0  0  0  0  0
   -2.7135    1.3965    0.0000 C   0  0  0  0  0  0  0  0  0  0  0  0
   -1.7134    0.2786    0.0000 C   0  0  0  0  0  0  0  0  0  0  0  0
   -2.1815   -1.1465    0.0000 C   0  0  0  0  0  0  0  0  0  0  0  0
   -3.6497   -1.4537    0.0000 C   0  0  0  0  0  0  0  0  0  0  0  0
   -0.2451    0.5858    0.0000 C   0  0  0  0  0  0  0  0  0  0  0  0
    0.7550   -0.5322    0.0000 C   0  0  0  0  0  0  0  0  0  0  0  0
    2.2232   -0.2250    0.0000 C   0  0  0  0  0  0  0  0  0  0  0  0
    3.2233   -1.3430    0.0000 C   0  0  0  0  0  0  0  0  0  0  0  0
    4.6915   -1.0358    0.0000 C   0  0  0  0  0  0  0  0  0  0  0  0
    5.1596    0.3893    0.0000 N   0  0  0  0  0  0  0  0  0  0  0  0
    4.1595    1.5072    0.0000 C   0  0  0  0  0  0  0  0  0  0  0  0
    2.6913    1.2001    0.0000 C   0  0  0  0  0  0  0  0  0  0  0  0
   -6.1180   -0.6429    0.0000 H   0  0  0  0  0  0  0  0  0  0  0  0
   -5.1818    2.2073    0.0000 H   0  0  0  0  0  0  0  0  0  0  0  0
   -2.2454    2.8216    0.0000 H   0  0  0  0  0  0  0  0  0  0  0  0
   -1.1813   -2.2644    0.0000 H   0  0  0  0  0  0  0  0  0  0  0  0
   -4.1178   -2.8787    0.0000 H   0  0  0  0  0  0  0  0  0  0  0  0
    0.2230    2.0108    0.0000 H   0  0  0  0  0  0  0  0  0  0  0  0
    0.2869   -1.9573    0.0000 H   0  0  0  0  0  0  0  0  0  0  0  0
    2.7552   -2.7680    0.0000 H   0  0  0  0  0  0  0  0  0  0  0  0
    5.6916   -2.1537    0.0000 H   0  0  0  0  0  0  0  0  0  0  0  0
    4.6276    2.9323    0.0000 H   0  0  0  0  0  0  0  0  0  0  0  0
    1.6912    2.3180    0.0000 H   0  0  0  0  0  0  0  0  0  0  0  0
  1  2  2  0
  1  6  1  0
  1 15  1  0
  2  3  1  0
  2 16  1  0
  3  4  2  0
  3 17  1  0
  4  5  1  0
  4  7  1  0
  5  6  2  0
  5 18  1  0
  6 19  1  0
  7  8  2  0
  7 20  1  0
  8  9  1  0
  8 21  1  0
  9 10  2  0
  9 14  1  0
 10 11  1  0
 10 22  1  0
 11 12  2  0
 11 23  1  0
 12 13  1  0
 13 14  2  0
 13 24  1  0
 14 25  1  0
M  END
$$$$

     RDKit          2D

 60 63  0  0  1  0  0  0  0  0999 V2000
    8.6632    1.4527    0.0000 C   0  0  0  0  0  0  0  0  0  0  0  0
    7.5323    0.4673    0.0000 C   0  0  0  0  0  0  0  0  0  0  0  0
    7.8203   -1.0048    0.0000 O   0  0  0  0  0  0  0  0  0  0  0  0
    6.1135    0.9539    0.0000 O   0  0  0  0  0  0  0  0  0  0  0  0
    4.9826   -0.0315    0.0000 C   0  0  0  0  0  0  0  0  0  0  0  0
    4.2085    1.2533    0.0000 C   0  0  0  0  0  0  0  0  0  0  0  0
    2.7087    1.2253    0.0000 C   0  0  0  0  0  0  0  0  0  0  0  0
    1.9831   -0.0874    0.0000 C   0  0  0  0  0  0  0  0  0  0  0  0
    0.4833   -0.1154    0.0000 C   0  0  0  0  0  0  0  0  0  0  0  0
   -0.2907    1.1694    0.0000 C   0  0  0  0  0  0  0  0  0  0  0  0
   -1.7905    1.1415    0.0000 C   0  0  0  0  0  0  0  0  0  0  0  0
   -2.5161   -0.1713    0.0000 C   0  0  0  0  0  0  0  0  0  0  0  0
   -1.7420   -1.4562    0.0000 C   0  0  0  0  0  0  0  0  0  0  0  0
   -0.2423   -1.4282    0.0000 C   0  0  0  0  0  0  0  0  0  0  0  0
    0.5318   -2.7130    0.0000 C   0  0  0  0  0  0  0  0  0  0  0  0
    2.0315   -2.6851    0.0000 C   0  0  0  0  0  0  0  0  0  0  0  0
    2.7572   -1.3723    0.0000 C   0  0  0  0  0  0  0  0  0  0  0  0
    4.2569   -1.3443    0.0000 C   0  0  0  0  0  0  0  0  0  0  0  0
   -2.7248   -2.5894    0.0000 C   0  0  0  0  0  0  0  0  0  0  0  0
   -4.1062   -2.0049    0.0000 C   0  0  0  0  0  0  0  0  0  0  0  0
   -3.9773   -0.5105    0.0000 C   0  0  0  0  0  0  0  0  0  0  0  0
   -5.4770   -0.5385    0.0000 C   0  0  0  0  0  0  0  0  0  0  0  0
   -6.9768   -0.5664    0.0000 C   0  0  0  0  0  0  0  0  0  0  0  0
   -4.1619    0.9781    0.0000 O   0  0  0  0  0  0  0  0  0  0  0  0
   -5.5433    1.5626    0.0000 C   0  0  0  0  0  0  0  0  0  0  0  0
   -6.7402    0.6584    0.0000 O   0  0  0  0  0  0  0  0  0  0  0  0
   -5.7279    3.0512    0.0000 C   0  0  0  0  0  0  0  0  0  0  0  0
   -3.4203    1.0255    0.0000 C   0  0  0  0  0  0  0  0  0  0  0  0
    9.6486    0.3218    0.0000 H   0  0  0  0  0  0  0  0  0  0  0  0
    7.6778    2.5836    0.0000 H   0  0  0  0  0  0  0  0  0  0  0  0
    9.7941    2.4381    0.0000 H   0  0  0  0  0  0  0  0  0  0  0  0
    6.1494   -0.9741    0.0000 H   0  0  0  0  0  0  0  0  0  0  0  0
    5.6082    1.7925    0.0000 H   0  0  0  0  0  0  0  0  0  0  0  0
    3.9205    2.7254    0.0000 H   0  0  0  0  0  0  0  0  0  0  0  0
    2.9416    2.7072    0.0000 H   0  0  0  0  0  0  0  0  0  0  0  0
    1.4498    2.0409    0.0000 H   0  0  0  0  0  0  0  0  0  0  0  0
    1.2574   -1.4002    0.0000 H   0  0  0  0  0  0  0  0  0  0  0  0
    1.2090    1.1974    0.0000 H   0  0  0  0  0  0  0  0  0  0  0  0
   -0.5787    2.6415    0.0000 H   0  0  0  0  0  0  0  0  0  0  0  0
    0.9369    2.0313    0.0000 H   0  0  0  0  0  0  0  0  0  0  0  0
   -3.0494    1.9570    0.0000 H   0  0  0  0  0  0  0  0  0  0  0  0
   -1.5576    2.6233    0.0000 H   0  0  0  0  0  0  0  0  0  0  0  0
   -1.1576   -0.0747    0.0000 H   0  0  0  0  0  0  0  0  0  0  0  0
   -0.9680   -2.7410    0.0000 H   0  0  0  0  0  0  0  0  0  0  0  0
    0.8197   -4.1851    0.0000 H   0  0  0  0  0  0  0  0  0  0  0  0
   -0.6959   -3.5749    0.0000 H   0  0  0  0  0  0  0  0  0  0  0  0
    3.4504   -3.1717    0.0000 H   0  0  0  0  0  0  0  0  0  0  0  0
    1.7986   -4.1669    0.0000 H   0  0  0  0  0  0  0  0  0  0  0  0
    5.0310   -2.6291    0.0000 H   0  0  0  0  0  0  0  0  0  0  0  0
   -1.7394   -3.7203    0.0000 H   0  0  0  0  0  0  0  0  0  0  0  0
   -3.4504   -3.9022    0.0000 H   0  0  0  0  0  0  0  0  0  0  0  0
   -4.5431   -3.4399    0.0000 H   0  0  0  0  0  0  0  0  0  0  0  0
   -5.5790   -1.7205    0.0000 H   0  0  0  0  0  0  0  0  0  0  0  0
   -8.4765   -0.5944    0.0000 H   0  0  0  0  0  0  0  0  0  0  0  0
   -7.2165    2.8666    0.0000 H   0  0  0  0  0  0  0  0  0  0  0  0
   -4.2393    3.2357    0.0000 H   0  0  0  0  0  0  0  0  0  0  0  0
   -5.9125    4.5398    0.0000 H   0  0  0  0  0  0  0  0  0  0  0  0
   -4.6172    0.1214    0.0000 H   0  0  0  0  0  0  0  0  0  0  0  0
   -2.2234    1.9297    0.0000 H   0  0  0  0  0  0  0  0  0  0  0  0
   -4.3244    2.2224    0.0000 H   0  0  0  0  0  0  0  0  0  0  0  0
  1  2  1  0
  1 29  1  0
  1 30  1  0
  1 31  1  0
  2  3  2  0
  2  4  1  0
  5  6  1  0
  5 18  1  0
  5 32  1  1
  5  4  1  0
  6  7  1  0
  6 33  1  0
  6 34  1  0
  7  8  1  0
  7 35  1  0
  7 36  1  0
  8  9  1  0
  8 17  1  0
  8 37  1  1
  9 10  1  0
  9 14  1  0
  9 38  1  6
 10 11  1  0
 10 39  1  0
 10 40  1  0
 11 12  1  0
 11 41  1  0
 11 42  1  0
 12 13  1  0
 12 21  1  0
 12 28  1  6
 13 14  1  0
 13 19  1  0
 13 43  1  1
 14 15  1  0
 14 44  1  1
 15 16  1  0
 15 45  1  0
 15 46  1  0
 16 17  1  0
 16 47  1  0
 16 48  1  0
 17 18  2  0
 18 49  1  0
 19 20  1  0
 19 50  1  0
 19 51  1  0
 20 21  1  0
 20 52  1  0
 20 53  1  0
 21 24  1  0
 21 22  1  1
 22 23  3  0
 23 54  1  0
 24 25  1  0
 25 26  2  0
 25 27  1  0
 27 55  1  0
 27 56  1  0
 27 57  1  0
 28 58  1  0
 28 59  1  0
 28 60  1  0
M  END
$$$$

     RDKit          2D

128130  0  0  1  0  0  0  0  0999 V2000
  -17.2656    1.9241    0.0000 C   0  0  0  0  0  0  0  0  0  0  0  0
  -17.3670    0.4275    0.0000 C   0  0  0  0  0  0  0  0  0  0  0  0
  -16.1216   -0.4085    0.0000 C   0  0  0  0  0  0  0  0  0  0  0  0
  -16.2230   -1.9051    0.0000 C   0  0  0  0  0  0  0  0  0  0  0  0
  -17.5697   -2.5656    0.0000 C   0  0  0  0  0  0  0  0  0  0  0  0
  -18.8151   -1.7295    0.0000 C   0  0  0  0  0  0  0  0  0  0  0  0
  -18.7137   -0.2330    0.0000 C   0  0  0  0  0  0  0  0  0  0  0  0
  -14.7315   -1.7451    0.0000 C   0  0  0  0  0  0  0  0  0  0  0  0
  -15.8064   -3.3461    0.0000 C   0  0  0  0  0  0  0  0  0  0  0  0
  -14.7748    0.2520    0.0000 C   0  0  0  0  0  0  0  0  0  0  0  0
  -13.5295   -0.5841    0.0000 C   0  0  0  0  0  0  0  0  0  0  0  0
  -12.1827    0.0764    0.0000 C   0  0  0  0  0  0  0  0  0  0  0  0
  -10.9373   -0.7597    0.0000 C   0  0  0  0  0  0  0  0  0  0  0  0
   -9.5906   -0.0992    0.0000 C   0  0  0  0  0  0  0  0  0  0  0  0
   -8.3452   -0.9352    0.0000 C   0  0  0  0  0  0  0  0  0  0  0  0
   -6.9984   -0.2747    0.0000 C   0  0  0  0  0  0  0  0  0  0  0  0
   -5.7530   -1.1108    0.0000 C   0  0  0  0  0  0  0  0  0  0  0  0
   -4.4063   -0.4503    0.0000 C   0  0  0  0  0  0  0  0  0  0  0  0
   -4.4881    1.0475    0.0000 O   0  0  0  0  0  0  0  0  0  0  0  0
   -3.1609   -1.2864    0.0000 O   0  0  0  0  0  0  0  0  0  0  0  0
   -1.8142   -0.6259    0.0000 C   0  0  0  0  0  0  0  0  0  0  0  0
   -1.7128    0.8707    0.0000 C   0  0  0  0  0  0  0  0  0  0  0  0
   -0.3660    1.5312    0.0000 C   0  0  0  0  0  0  0  0  0  0  0  0
    0.8793    0.6951    0.0000 C   0  0  0  0  0  0  0  0  0  0  0  0
    0.7780   -0.8015    0.0000 C   0  0  0  0  0  0  0  0  0  0  0  0
   -0.5688   -1.4620    0.0000 C   0  0  0  0  0  0  0  0  0  0  0  0
   -0.6701   -2.9585    0.0000 C   0  0  0  0  0  0  0  0  0  0  0  0
    2.0234   -1.6375    0.0000 C   0  0  0  0  0  0  0  0  0  0  0  0
    2.2261    1.3556    0.0000 O   0  0  0  0  0  0  0  0  0  0  0  0
    2.3275    2.8522    0.0000 C   0  0  0  0  0  0  0  0  0  0  0  0
    1.0821    3.6883    0.0000 C   0  0  0  0  0  0  0  0  0  0  0  0
   -0.2647    3.0278    0.0000 C   0  0  0  0  0  0  0  0  0  0  0  0
    2.9346    4.2238    0.0000 C   0  0  0  0  0  0  0  0  0  0  0  0
    3.7837    2.4925    0.0000 C   0  0  0  0  0  0  0  0  0  0  0  0
    5.2399    2.1328    0.0000 C   0  0  0  0  0  0  0  0  0  0  0  0
    6.6962    1.7731    0.0000 C   0  0  0  0  0  0  0  0  0  0  0  0
    8.1524    1.4134    0.0000 C   0  0  0  0  0  0  0  0  0  0  0  0
    7.7927   -0.0429    0.0000 C   0  0  0  0  0  0  0  0  0  0  0  0
    9.6086    1.0537    0.0000 C   0  0  0  0  0  0  0  0  0  0  0  0
   11.0649    0.6940    0.0000 C   0  0  0  0  0  0  0  0  0  0  0  0
   12.5211    0.3343    0.0000 C   0  0  0  0  0  0  0  0  0  0  0  0
   13.9773   -0.0254    0.0000 C   0  0  0  0  0  0  0  0  0  0  0  0
   13.6176   -1.4817    0.0000 C   0  0  0  0  0  0  0  0  0  0  0  0
   15.4336   -0.3851    0.0000 C   0  0  0  0  0  0  0  0  0  0  0  0
   16.8898   -0.7448    0.0000 C   0  0  0  0  0  0  0  0  0  0  0  0
   18.3460   -1.1045    0.0000 C   0  0  0  0  0  0  0  0  0  0  0  0
   19.8023   -1.4642    0.0000 C   0  0  0  0  0  0  0  0  0  0  0  0
   19.4426   -2.9205    0.0000 C   0  0  0  0  0  0  0  0  0  0  0  0
   21.2585   -1.8239    0.0000 C   0  0  0  0  0  0  0  0  0  0  0  0
   -2.9582    1.7068    0.0000 C   0  0  0  0  0  0  0  0  0  0  0  0
   -6.8971    1.2218    0.0000 C   0  0  0  0  0  0  0  0  0  0  0  0
  -12.0813    1.5730    0.0000 C   0  0  0  0  0  0  0  0  0  0  0  0
  -18.7387    2.2071    0.0000 H   0  0  0  0  0  0  0  0  0  0  0  0
  -15.7690    1.8227    0.0000 H   0  0  0  0  0  0  0  0  0  0  0  0
  -17.1643    3.4207    0.0000 H   0  0  0  0  0  0  0  0  0  0  0  0
  -17.1817   -3.2620    0.0000 H   0  0  0  0  0  0  0  0  0  0  0  0
  -18.6093   -3.6469    0.0000 H   0  0  0  0  0  0  0  0  0  0  0  0
  -19.4222   -3.1012    0.0000 H   0  0  0  0  0  0  0  0  0  0  0  0
  -20.2713   -1.3698    0.0000 H   0  0  0  0  0  0  0  0  0  0  0  0
  -20.2052   -0.3930    0.0000 H   0  0  0  0  0  0  0  0  0  0  0  0
  -19.3029    1.1465    0.0000 H   0  0  0  0  0  0  0  0  0  0  0  0
  -14.3909   -3.2059    0.0000 H   0  0  0  0  0  0  0  0  0  0  0  0
  -14.5650   -0.5415    0.0000 H   0  0  0  0  0  0  0  0  0  0  0  0
  -13.2317   -1.7680    0.0000 H   0  0  0  0  0  0  0  0  0  0  0  0
  -16.5395   -3.6592    0.0000 H   0  0  0  0  0  0  0  0  0  0  0  0
  -14.3253   -3.1082    0.0000 H   0  0  0  0  0  0  0  0  0  0  0  0
  -15.3898   -4.7871    0.0000 H   0  0  0  0  0  0  0  0  0  0  0  0
  -14.6735    1.7485    0.0000 H   0  0  0  0  0  0  0  0  0  0  0  0
  -13.4476   -2.0819    0.0000 H   0  0  0  0  0  0  0  0  0  0  0  0
  -11.0387   -2.2562    0.0000 H   0  0  0  0  0  0  0  0  0  0  0  0
   -9.4892    1.3974    0.0000 H   0  0  0  0  0  0  0  0  0  0  0  0
   -8.4466   -2.4318    0.0000 H   0  0  0  0  0  0  0  0  0  0  0  0
   -5.8544   -2.6074    0.0000 H   0  0  0  0  0  0  0  0  0  0  0  0
   -2.1667   -2.8572    0.0000 H   0  0  0  0  0  0  0  0  0  0  0  0
    0.8029   -3.2416    0.0000 H   0  0  0  0  0  0  0  0  0  0  0  0
   -0.7715   -4.4551    0.0000 H   0  0  0  0  0  0  0  0  0  0  0  0
    1.3453   -2.9755    0.0000 H   0  0  0  0  0  0  0  0  0  0  0  0
    2.8594   -0.3921    0.0000 H   0  0  0  0  0  0  0  0  0  0  0  0
    3.2687   -2.4736    0.0000 H   0  0  0  0  0  0  0  0  0  0  0  0
    0.1977    4.8999    0.0000 H   0  0  0  0  0  0  0  0  0  0  0  0
    1.9821    4.8882    0.0000 H   0  0  0  0  0  0  0  0  0  0  0  0
   -1.7645    3.0507    0.0000 H   0  0  0  0  0  0  0  0  0  0  0  0
   -0.6813    4.4687    0.0000 H   0  0  0  0  0  0  0  0  0  0  0  0
    4.3700    3.7884    0.0000 H   0  0  0  0  0  0  0  0  0  0  0  0
    1.6472    4.9936    0.0000 H   0  0  0  0  0  0  0  0  0  0  0  0
    3.5417    5.5955    0.0000 H   0  0  0  0  0  0  0  0  0  0  0  0
    3.4240    1.0363    0.0000 H   0  0  0  0  0  0  0  0  0  0  0  0
    4.3182    3.8940    0.0000 H   0  0  0  0  0  0  0  0  0  0  0  0
    5.5996    3.5890    0.0000 H   0  0  0  0  0  0  0  0  0  0  0  0
    4.8802    0.6765    0.0000 H   0  0  0  0  0  0  0  0  0  0  0  0
    7.0559    3.2293    0.0000 H   0  0  0  0  0  0  0  0  0  0  0  0
    6.1616    0.3716    0.0000 H   0  0  0  0  0  0  0  0  0  0  0  0
    8.5121    2.8696    0.0000 H   0  0  0  0  0  0  0  0  0  0  0  0
    9.1942   -0.5774    0.0000 H   0  0  0  0  0  0  0  0  0  0  0  0
    6.3035    0.1367    0.0000 H   0  0  0  0  0  0  0  0  0  0  0  0
    7.4330   -1.4991    0.0000 H   0  0  0  0  0  0  0  0  0  0  0  0
    9.4291   -0.4355    0.0000 H   0  0  0  0  0  0  0  0  0  0  0  0
    9.9683    2.5099    0.0000 H   0  0  0  0  0  0  0  0  0  0  0  0
   11.4246    2.1502    0.0000 H   0  0  0  0  0  0  0  0  0  0  0  0
   10.7052   -0.7623    0.0000 H   0  0  0  0  0  0  0  0  0  0  0  0
   12.8808    1.7905    0.0000 H   0  0  0  0  0  0  0  0  0  0  0  0
   11.9866   -1.0673    0.0000 H   0  0  0  0  0  0  0  0  0  0  0  0
   14.3370    1.4308    0.0000 H   0  0  0  0  0  0  0  0  0  0  0  0
   15.0191   -2.0162    0.0000 H   0  0  0  0  0  0  0  0  0  0  0  0
   12.1284   -1.3022    0.0000 H   0  0  0  0  0  0  0  0  0  0  0  0
   13.2579   -2.9379    0.0000 H   0  0  0  0  0  0  0  0  0  0  0  0
   15.2540   -1.8744    0.0000 H   0  0  0  0  0  0  0  0  0  0  0  0
   15.7933    1.0711    0.0000 H   0  0  0  0  0  0  0  0  0  0  0  0
   17.2495    0.7114    0.0000 H   0  0  0  0  0  0  0  0  0  0  0  0
   16.5301   -2.2011    0.0000 H   0  0  0  0  0  0  0  0  0  0  0  0
   18.7057    0.3517    0.0000 H   0  0  0  0  0  0  0  0  0  0  0  0
   17.8115   -2.5061    0.0000 H   0  0  0  0  0  0  0  0  0  0  0  0
   20.1620   -0.0080    0.0000 H   0  0  0  0  0  0  0  0  0  0  0  0
   20.8441   -3.4550    0.0000 H   0  0  0  0  0  0  0  0  0  0  0  0
   17.9533   -2.7410    0.0000 H   0  0  0  0  0  0  0  0  0  0  0  0
   19.0828   -4.3767    0.0000 H   0  0  0  0  0  0  0  0  0  0  0  0
   21.0790   -3.3132    0.0000 H   0  0  0  0  0  0  0  0  0  0  0  0
   21.6182   -0.3677    0.0000 H   0  0  0  0  0  0  0  0  0  0  0  0
   22.7147   -2.1836    0.0000 H   0  0  0  0  0  0  0  0  0  0  0  0
   -3.9398    0.5726    0.0000 H   0  0  0  0  0  0  0  0  0  0  0  0
   -2.2802    3.0448    0.0000 H   0  0  0  0  0  0  0  0  0  0  0  0
   -4.2036    2.5428    0.0000 H   0  0  0  0  0  0  0  0  0  0  0  0
   -8.3936    1.3232    0.0000 H   0  0  0  0  0  0  0  0  0  0  0  0
   -5.4005    1.1205    0.0000 H   0  0  0  0  0  0  0  0  0  0  0  0
   -6.7957    2.7184    0.0000 H   0  0  0  0  0  0  0  0  0  0  0  0
  -13.5779    1.6743    0.0000 H   0  0  0  0  0  0  0  0  0  0  0  0
  -10.5848    1.4716    0.0000 H   0  0  0  0  0  0  0  0  0  0  0  0
  -11.9800    3.0695    0.0000 H   0  0  0  0  0  0  0  0  0  0  0  0
  1  2  1  0
  1 53  1  0
  1 54  1  0
  1 55  1  0
  2  3  2  0
  2  7  1  0
  3  4  1  0
  3 10  1  0
  4  5  1  0
  4  8  1  0
  4  9  1  0
  5  6  1  0
  5 56  1  0
  5 57  1  0
  6  7  1  0
  6 58  1  0
  6 59  1  0
  7 60  1  0
  7 61  1  0
  8 62  1  0
  8 63  1  0
  8 64  1  0
  9 65  1  0
  9 66  1  0
  9 67  1  0
 10 11  2  0
 10 68  1  0
 11 12  1  0
 11 69  1  0
 12 13  2  0
 12 52  1  0
 13 14  1  0
 13 70  1  0
 14 15  2  0
 14 71  1  0
 15 16  1  0
 15 72  1  0
 16 17  2  0
 16 51  1  0
 17 18  1  0
 17 73  1  0
 18 19  2  0
 18 20  1  0
 20 21  1  0
 21 22  2  0
 21 26  1  0
 22 23  1  0
 22 50  1  0
 23 24  2  0
 23 32  1  0
 24 25  1  0
 24 29  1  0
 25 26  2  0
 25 28  1  0
 26 27  1  0
 27 74  1  0
 27 75  1  0
 27 76  1  0
 28 77  1  0
 28 78  1  0
 28 79  1  0
 29 30  1  0
 30 31  1  0
 30 33  1  6
 30 34  1  0
 31 32  1  0
 31 80  1  0
 31 81  1  0
 32 82  1  0
 32 83  1  0
 33 84  1  0
 33 85  1  0
 33 86  1  0
 34 35  1  0
 34 87  1  0
 34 88  1  0
 35 36  1  0
 35 89  1  0
 35 90  1  0
 36 91  1  0
 36 92  1  0
 37 39  1  0
 37 93  1  6
 37 38  1  0
 37 36  1  0
 38 94  1  0
 38 95  1  0
 38 96  1  0
 39 40  1  0
 39 97  1  0
 39 98  1  0
 40 41  1  0
 40 99  1  0
 40100  1  0
 41101  1  0
 41102  1  0
 42 44  1  0
 42103  1  6
 42 43  1  0
 42 41  1  0
 43104  1  0
 43105  1  0
 43106  1  0
 44 45  1  0
 44107  1  0
 44108  1  0
 45 46  1  0
 45109  1  0
 45110  1  0
 46 47  1  0
 46111  1  0
 46112  1  0
 47 48  1  0
 47 49  1  0
 47113  1  0
 48114  1  0
 48115  1  0
 48116  1  0
 49117  1  0
 49118  1  0
 49119  1  0
 50120  1  0
 50121  1  0
 50122  1  0
 51123  1  0
 51124  1  0
 51125  1  0
 52126  1  0
 52127  1  0
 52128  1  0
M  END
$$$$

     RDKit          2D

 48 51  0  0  1  0  0  0  0  0999 V2000
    3.0827    0.2861    0.0000 C   0  0  0  0  0  0  0  0  0  0  0  0
    1.5832    0.3267    0.0000 C   0  0  0  0  0  0  0  0  0  0  0  0
    2.3681    1.6050    0.0000 C   0  0  0  0  0  0  0  0  0  0  0  0
    3.8675    1.5644    0.0000 C   0  0  0  0  0  0  0  0  0  0  0  0
    4.5821    0.2456    0.0000 C   0  0  0  0  0  0  0  0  0  0  0  0
    6.0816    0.2050    0.0000 O   0  0  0  0  0  0  0  0  0  0  0  0
    3.7973   -1.0327    0.0000 C   0  0  0  0  0  0  0  0  0  0  0  0
    2.2978   -0.9922    0.0000 C   0  0  0  0  0  0  0  0  0  0  0  0
    1.5130   -2.2705    0.0000 C   0  0  0  0  0  0  0  0  0  0  0  0
    0.0136   -2.2299    0.0000 C   0  0  0  0  0  0  0  0  0  0  0  0
   -0.7011   -0.9111    0.0000 C   0  0  0  0  0  0  0  0  0  0  0  0
    0.0838    0.3672    0.0000 C   0  0  0  0  0  0  0  0  0  0  0  0
   -0.6308    1.6860    0.0000 C   0  0  0  0  0  0  0  0  0  0  0  0
   -2.1303    1.7266    0.0000 C   0  0  0  0  0  0  0  0  0  0  0  0
   -2.9151    0.4483    0.0000 C   0  0  0  0  0  0  0  0  0  0  0  0
   -2.2005   -0.8706    0.0000 C   0  0  0  0  0  0  0  0  0  0  0  0
   -3.2340   -1.9577    0.0000 C   0  0  0  0  0  0  0  0  0  0  0  0
   -4.5873   -1.3108    0.0000 C   0  0  0  0  0  0  0  0  0  0  0  0
   -4.3902    0.1762    0.0000 C   0  0  0  0  0  0  0  0  0  0  0  0
   -5.5953    1.0694    0.0000 O   0  0  0  0  0  0  0  0  0  0  0  0
   -3.7637    1.6852    0.0000 C   0  0  0  0  0  0  0  0  0  0  0  0
    4.5119   -2.3515    0.0000 O   0  0  0  0  0  0  0  0  0  0  0  0
    3.4759    0.9796    0.0000 H   0  0  0  0  0  0  0  0  0  0  0  0
    3.7510   -1.0568    0.0000 H   0  0  0  0  0  0  0  0  0  0  0  0
    4.5278   -0.1160    0.0000 H   0  0  0  0  0  0  0  0  0  0  0  0
    2.6684    3.0746    0.0000 H   0  0  0  0  0  0  0  0  0  0  0  0
    1.1477    2.4771    0.0000 H   0  0  0  0  0  0  0  0  0  0  0  0
    5.2904    2.0392    0.0000 H   0  0  0  0  0  0  0  0  0  0  0  0
    3.6471    3.0481    0.0000 H   0  0  0  0  0  0  0  0  0  0  0  0
    1.2127   -3.7401    0.0000 H   0  0  0  0  0  0  0  0  0  0  0  0
    2.9082   -2.8214    0.0000 H   0  0  0  0  0  0  0  0  0  0  0  0
   -1.2522   -3.0349    0.0000 H   0  0  0  0  0  0  0  0  0  0  0  0
    0.2340   -3.7136    0.0000 H   0  0  0  0  0  0  0  0  0  0  0  0
   -1.4859   -2.1894    0.0000 H   0  0  0  0  0  0  0  0  0  0  0  0
    0.8686    1.6455    0.0000 H   0  0  0  0  0  0  0  0  0  0  0  0
   -0.8513    3.1697    0.0000 H   0  0  0  0  0  0  0  0  0  0  0  0
    0.6349    2.4910    0.0000 H   0  0  0  0  0  0  0  0  0  0  0  0
   -3.3507    2.5987    0.0000 H   0  0  0  0  0  0  0  0  0  0  0  0
   -1.8300    3.1962    0.0000 H   0  0  0  0  0  0  0  0  0  0  0  0
   -1.5536    0.4828    0.0000 H   0  0  0  0  0  0  0  0  0  0  0  0
   -2.3013   -3.1325    0.0000 H   0  0  0  0  0  0  0  0  0  0  0  0
   -4.0188   -3.2360    0.0000 H   0  0  0  0  0  0  0  0  0  0  0  0
   -5.0892   -2.7244    0.0000 H   0  0  0  0  0  0  0  0  0  0  0  0
   -6.0456   -0.9594    0.0000 H   0  0  0  0  0  0  0  0  0  0  0  0
   -5.0948    0.9937    0.0000 H   0  0  0  0  0  0  0  0  0  0  0  0
   -2.5268    2.5337    0.0000 H   0  0  0  0  0  0  0  0  0  0  0  0
   -4.6122    2.9221    0.0000 H   0  0  0  0  0  0  0  0  0  0  0  0
    6.0114   -2.3921    0.0000 H   0  0  0  0  0  0  0  0  0  0  0  0
  1 23  1  0
  1 24  1  0
  1 25  1  0
  2  3  1  0
  2  8  1  0
  2 12  1  0
  2  1  1  1
  3  4  1  0
  3 26  1  0
  3 27  1  0
  4  5  1  0
  4 28  1  0
  4 29  1  0
  5  7  1  0
  5  6  2  0
  7  8  2  0
  7 22  1  0
  8  9  1  0
  9 10  1  0
  9 30  1  0
  9 31  1  0
 10 11  1  0
 10 32  1  0
 10 33  1  0
 11 12  1  0
 11 16  1  0
 11 34  1  1
 12 13  1  0
 12 35  1  6
 13 14  1  0
 13 36  1  0
 13 37  1  0
 14 15  1  0
 14 38  1  0
 14 39  1  0
 15 16  1  0
 15 19  1  0
 15 21  1  1
 16 17  1  0
 16 40  1  1
 17 18  1  0
 17 41  1  0
 17 42  1  0
 18 19  1  0
 18 43  1  0
 18 44  1  0
 19 20  2  0
 21 45  1  0
 21 46  1  0
 21 47  1  0
 22 48  1  0
M  END
$$$$

     RDKit          2D

 52 51  0  0  0  0  0  0  0  0999 V2000
    4.5764   -0.4820    0.0000 C   0  0  0  0  0  0  0  0  0  0  0  0
    3.9623    0.8865    0.0000 C   0  0  0  0  0  0  0  0  0  0  0  0
    2.4701    1.0389    0.0000 C   0  0  0  0  0  0  0  0  0  0  0  0
    1.8559    2.4074    0.0000 C   0  0  0  0  0  0  0  0  0  0  0  0
    2.7341    3.6235    0.0000 C   0  0  0  0  0  0  0  0  0  0  0  0
    4.2263    3.4711    0.0000 C   0  0  0  0  0  0  0  0  0  0  0  0
    4.8404    2.1026    0.0000 C   0  0  0  0  0  0  0  0  0  0  0  0
    0.3637    2.5599    0.0000 C   0  0  0  0  0  0  0  0  0  0  0  0
    1.5920   -0.1772    0.0000 N   0  0  0  0  0  0  0  0  0  0  0  0
    0.0997   -0.0248    0.0000 C   0  0  0  0  0  0  0  0  0  0  0  0
   -1.3925    0.1276    0.0000 C   0  0  0  0  0  0  0  0  0  0  0  0
   -2.8848    0.2801    0.0000 C   0  0  0  0  0  0  0  0  0  0  0  0
   -4.3770    0.4325    0.0000 C   0  0  0  0  0  0  0  0  0  0  0  0
   -4.9911    1.8010    0.0000 C   0  0  0  0  0  0  0  0  0  0  0  0
   -6.4833    1.9534    0.0000 N   0  0  0  0  0  0  0  0  0  0  0  0
   -7.3615    0.7373    0.0000 C   0  0  0  0  0  0  0  0  0  0  0  0
   -6.7473   -0.6312    0.0000 C   0  0  0  0  0  0  0  0  0  0  0  0
   -5.2551   -0.7836    0.0000 C   0  0  0  0  0  0  0  0  0  0  0  0
    2.2061   -1.5457    0.0000 C   0  0  0  0  0  0  0  0  0  0  0  0
    3.0872   -1.6357    0.0000 O   0  0  0  0  0  0  0  0  0  0  0  0
    1.3280   -2.7618    0.0000 C   0  0  0  0  0  0  0  0  0  0  0  0
    2.5441   -3.6399    0.0000 C   0  0  0  0  0  0  0  0  0  0  0  0
    0.4499   -3.9779    0.0000 N   0  0  0  0  0  0  0  0  0  0  0  0
   -0.7500    5.9921    0.0000 Cl  0  0  0  0  0  0  0  0  0  0  0  0
   -0.7500    6.9921    0.0000 Cl  0  0  0  0  0  0  0  0  0  0  0  0
    3.8186   -0.9405    0.0000 H   0  0  0  0  0  0  0  0  0  0  0  0
    5.9450    0.1321    0.0000 H   0  0  0  0  0  0  0  0  0  0  0  0
    5.1906   -1.8505    0.0000 H   0  0  0  0  0  0  0  0  0  0  0  0
    2.1199    4.9921    0.0000 H   0  0  0  0  0  0  0  0  0  0  0  0
    5.1044    4.6872    0.0000 H   0  0  0  0  0  0  0  0  0  0  0  0
    6.3327    1.9502    0.0000 H   0  0  0  0  0  0  0  0  0  0  0  0
    0.1866    1.7826    0.0000 H   0  0  0  0  0  0  0  0  0  0  0  0
    0.5161    4.0521    0.0000 H   0  0  0  0  0  0  0  0  0  0  0  0
   -1.1285    2.7123    0.0000 H   0  0  0  0  0  0  0  0  0  0  0  0
   -0.2335   -1.4873    0.0000 H   0  0  0  0  0  0  0  0  0  0  0  0
    0.0834    0.7722    0.0000 H   0  0  0  0  0  0  0  0  0  0  0  0
   -1.5449   -1.3646    0.0000 H   0  0  0  0  0  0  0  0  0  0  0  0
   -1.2401    1.6199    0.0000 H   0  0  0  0  0  0  0  0  0  0  0  0
   -3.0372   -1.2122    0.0000 H   0  0  0  0  0  0  0  0  0  0  0  0
   -2.7323    1.7723    0.0000 H   0  0  0  0  0  0  0  0  0  0  0  0
   -4.1130    3.0171    0.0000 H   0  0  0  0  0  0  0  0  0  0  0  0
   -8.8537    0.8897    0.0000 H   0  0  0  0  0  0  0  0  0  0  0  0
   -7.6255   -1.8473    0.0000 H   0  0  0  0  0  0  0  0  0  0  0  0
   -4.6410   -2.1522    0.0000 H   0  0  0  0  0  0  0  0  0  0  0  0
    0.0139   -2.0385    0.0000 H   0  0  0  0  0  0  0  0  0  0  0  0
    1.8207   -4.9540    0.0000 H   0  0  0  0  0  0  0  0  0  0  0  0
    3.5639   -2.5399    0.0000 H   0  0  0  0  0  0  0  0  0  0  0  0
    3.7602   -4.5180    0.0000 H   0  0  0  0  0  0  0  0  0  0  0  0
    0.8926   -5.4111    0.0000 H   0  0  0  0  0  0  0  0  0  0  0  0
   -1.0424   -3.8255    0.0000 H   0  0  0  0  0  0  0  0  0  0  0  0
    0.7500    5.9921    0.0000 H   0  0  0  0  0  0  0  0  0  0  0  0
    0.7500    6.9921    0.0000 H   0  0  0  0  0  0  0  0  0  0  0  0
  1  2  1  0
  1 26  1  0
  1 27  1  0
  1 28  1  0
  2  3  2  0
  2  7  1  0
  3  4  1  0
  3  9  1  0
  4  5  2  0
  4  8  1  0
  5  6  1  0
  5 29  1  0
  6  7  2  0
  6 30  1  0
  7 31  1  0
  8 32  1  0
  8 33  1  0
  8 34  1  0
  9 10  1  0
  9 19  1  0
 10 11  1  0
 10 35  1  0
 10 36  1  0
 11 12  1  0
 11 37  1  0
 11 38  1  0
 12 13  1  0
 12 39  1  0
 12 40  1  0
 13 14  2  0
 13 18  1  0
 14 15  1  0
 14 41  1  0
 15 16  2  0
 16 17  1  0
 16 42  1  0
 17 18  2  0
 17 43  1  0
 18 44  1  0
 19 20  2  0
 19 21  1  0
 21 22  1  0
 21 23  1  0
 21 45  1  6
 22 46  1  0
 22 47  1  0
 22 48  1  0
 23 49  1  0
 23 50  1  0
 24 51  1  0
 25 52  1  0
M  END
$$$$

     RDKit          2D

 44 45  0  0  0  0  0  0  0  0999 V2000
   -1.5009    3.6618    0.0000 C   0  0  0  0  0  0  0  0  0  0  0  0
   -0.0554    4.0623    0.0000 C   0  0  0  0  0  0  0  0  0  0  0  0
    1.0142    3.0106    0.0000 C   0  0  0  0  0  0  0  0  0  0  0  0
    0.6383    1.5585    0.0000 C   0  0  0  0  0  0  0  0  0  0  0  0
   -0.8072    1.1580    0.0000 C   0  0  0  0  0  0  0  0  0  0  0  0
   -1.8769    2.2097    0.0000 C   0  0  0  0  0  0  0  0  0  0  0  0
   -1.1832   -0.2941    0.0000 C   0  0  0  0  0  0  0  0  0  0  0  0
   -0.1136   -1.3457    0.0000 N   0  0  0  0  0  0  0  0  0  0  0  0
    1.3320   -0.9452    0.0000 N   0  0  0  0  0  0  0  0  0  0  0  0
    1.7079    0.5069    0.0000 C   0  0  0  0  0  0  0  0  0  0  0  0
    3.1535    0.9074    0.0000 N   0  0  0  0  0  0  0  0  0  0  0  0
    4.2231   -0.1443    0.0000 C   0  0  0  0  0  0  0  0  0  0  0  0
    5.6686    0.2562    0.0000 C   0  0  0  0  0  0  0  0  0  0  0  0
    6.7382   -0.7954    0.0000 C   0  0  0  0  0  0  0  0  0  0  0  0
    6.3623   -2.2475    0.0000 C   0  0  0  0  0  0  0  0  0  0  0  0
    4.9167   -2.6480    0.0000 C   0  0  0  0  0  0  0  0  0  0  0  0
    3.8471   -1.5964    0.0000 C   0  0  0  0  0  0  0  0  0  0  0  0
    7.4319   -3.2992    0.0000 Cl  0  0  0  0  0  0  0  0  0  0  0  0
   -2.6287   -0.6946    0.0000 C   0  0  0  0  0  0  0  0  0  0  0  0
   -4.0743   -1.0951    0.0000 C   0  0  0  0  0  0  0  0  0  0  0  0
   -5.1439   -0.0435    0.0000 C   0  0  0  0  0  0  0  0  0  0  0  0
   -6.5894   -0.4439    0.0000 C   0  0  0  0  0  0  0  0  0  0  0  0
   -6.9654   -1.8961    0.0000 N   0  0  0  0  0  0  0  0  0  0  0  0
   -5.8958   -2.9477    0.0000 C   0  0  0  0  0  0  0  0  0  0  0  0
   -4.4502   -2.5472    0.0000 C   0  0  0  0  0  0  0  0  0  0  0  0
   -0.7500    6.5144    0.0000 Cl  0  0  0  0  0  0  0  0  0  0  0  0
   -0.7500    7.5144    0.0000 Cl  0  0  0  0  0  0  0  0  0  0  0  0
   -2.5705    4.7134    0.0000 H   0  0  0  0  0  0  0  0  0  0  0  0
    0.3206    5.5144    0.0000 H   0  0  0  0  0  0  0  0  0  0  0  0
    2.4598    3.4111    0.0000 H   0  0  0  0  0  0  0  0  0  0  0  0
   -3.3224    1.8092    0.0000 H   0  0  0  0  0  0  0  0  0  0  0  0
    3.5294    2.3595    0.0000 H   0  0  0  0  0  0  0  0  0  0  0  0
    6.0446    1.7084    0.0000 H   0  0  0  0  0  0  0  0  0  0  0  0
    8.1838   -0.3949    0.0000 H   0  0  0  0  0  0  0  0  0  0  0  0
    4.5408   -4.1001    0.0000 H   0  0  0  0  0  0  0  0  0  0  0  0
    2.4016   -1.9969    0.0000 H   0  0  0  0  0  0  0  0  0  0  0  0
   -2.2282   -2.1401    0.0000 H   0  0  0  0  0  0  0  0  0  0  0  0
   -3.0292    0.7510    0.0000 H   0  0  0  0  0  0  0  0  0  0  0  0
   -4.7679    1.4087    0.0000 H   0  0  0  0  0  0  0  0  0  0  0  0
   -7.6590    0.6077    0.0000 H   0  0  0  0  0  0  0  0  0  0  0  0
   -6.2717   -4.3998    0.0000 H   0  0  0  0  0  0  0  0  0  0  0  0
   -3.3806   -3.5988    0.0000 H   0  0  0  0  0  0  0  0  0  0  0  0
    0.7500    6.5144    0.0000 H   0  0  0  0  0  0  0  0  0  0  0  0
    0.7500    7.5144    0.0000 H   0  0  0  0  0  0  0  0  0  0  0  0
  1  2  2  0
  1  6  1  0
  1 28  1  0
  2  3  1  0
  2 29  1  0
  3  4  2  0
  3 30  1  0
  4  5  1  0
  4 10  1  0
  5  6  2  0
  5  7  1  0
  6 31  1  0
  7  8  2  0
  7 19  1  0
  8  9  1  0
  9 10  2  0
 10 11  1  0
 11 12  1  0
 11 32  1  0
 12 13  2  0
 12 17  1  0
 13 14  1  0
 13 33  1  0
 14 15  2  0
 14 34  1  0
 15 16  1  0
 15 18  1  0
 16 17  2  0
 16 35  1  0
 17 36  1  0
 19 20  1  0
 19 37  1  0
 19 38  1  0
 20 21  2  0
 20 25  1  0
 21 22  1  0
 21 39  1  0
 22 23  2  0
 22 40  1  0
 23 24  1  0
 24 25  2  0
 24 41  1  0
 25 42  1  0
 26 43  1  0
 27 44  1  0
M  END
$$$$

     RDKit          2D

 33 35  0  0  0  0  0  0  0  0999 V2000
    0.1503   -2.5497    0.0000 C   0  0  0  0  0  0  0  0  0  0  0  0
   -0.3000   -1.1189    0.0000 C   0  0  0  0  0  0  0  0  0  0  0  0
    0.7140   -0.0135    0.0000 C   0  0  0  0  0  0  0  0  0  0  0  0
    2.1783   -0.3390    0.0000 C   0  0  0  0  0  0  0  0  0  0  0  0
    2.6285   -1.7698    0.0000 C   0  0  0  0  0  0  0  0  0  0  0  0
    1.6145   -2.8752    0.0000 C   0  0  0  0  0  0  0  0  0  0  0  0
    2.0648   -4.3060    0.0000 C   0  0  0  0  0  0  0  0  0  0  0  0
    2.5151   -5.7368    0.0000 N   0  0  0  0  0  0  0  0  0  0  0  0
    0.2637    1.4173    0.0000 C   0  0  0  0  0  0  0  0  0  0  0  0
   -1.1671    0.9670    0.0000 C   0  0  0  0  0  0  0  0  0  0  0  0
   -2.2725    1.9810    0.0000 C   0  0  0  0  0  0  0  0  0  0  0  0
   -3.7033    1.5307    0.0000 C   0  0  0  0  0  0  0  0  0  0  0  0
   -4.0287    0.0665    0.0000 C   0  0  0  0  0  0  0  0  0  0  0  0
   -2.9234   -0.9475    0.0000 C   0  0  0  0  0  0  0  0  0  0  0  0
   -1.4926   -0.4972    0.0000 C   0  0  0  0  0  0  0  0  0  0  0  0
   -5.4596   -0.3838    0.0000 C   0  0  0  0  0  0  0  0  0  0  0  0
   -6.8904   -0.8341    0.0000 N   0  0  0  0  0  0  0  0  0  0  0  0
    1.6945    1.8676    0.0000 N   0  0  0  0  0  0  0  0  0  0  0  0
    2.1713    3.2898    0.0000 C   0  0  0  0  0  0  0  0  0  0  0  0
    3.6712    3.2759    0.0000 N   0  0  0  0  0  0  0  0  0  0  0  0
    4.1215    1.8451    0.0000 C   0  0  0  0  0  0  0  0  0  0  0  0
    2.8998    0.9747    0.0000 N   0  0  0  0  0  0  0  0  0  0  0  0
   -0.8637   -3.6551    0.0000 H   0  0  0  0  0  0  0  0  0  0  0  0
   -1.0969   -1.1394    0.0000 H   0  0  0  0  0  0  0  0  0  0  0  0
    3.4296    0.4882    0.0000 H   0  0  0  0  0  0  0  0  0  0  0  0
    4.0928   -2.0953    0.0000 H   0  0  0  0  0  0  0  0  0  0  0  0
   -0.1866    2.8481    0.0000 H   0  0  0  0  0  0  0  0  0  0  0  0
   -1.9470    3.4453    0.0000 H   0  0  0  0  0  0  0  0  0  0  0  0
   -4.8086    2.5447    0.0000 H   0  0  0  0  0  0  0  0  0  0  0  0
   -3.2488   -2.4118    0.0000 H   0  0  0  0  0  0  0  0  0  0  0  0
   -0.6654   -1.7486    0.0000 H   0  0  0  0  0  0  0  0  0  0  0  0
    1.3009    4.5114    0.0000 H   0  0  0  0  0  0  0  0  0  0  0  0
    5.5437    1.3683    0.0000 H   0  0  0  0  0  0  0  0  0  0  0  0
  1  2  2  0
  1  6  1  0
  1 23  1  0
  2  3  1  0
  2 24  1  0
  3  4  2  0
  3  9  1  0
  4  5  1  0
  4 25  1  0
  5  6  2  0
  5 26  1  0
  6  7  1  0
  7  8  3  0
  9 10  1  0
  9 18  1  0
  9 27  1  0
 10 11  2  0
 10 15  1  0
 11 12  1  0
 11 28  1  0
 12 13  2  0
 12 29  1  0
 13 14  1  0
 13 16  1  0
 14 15  2  0
 14 30  1  0
 15 31  1  0
 16 17  3  0
 18 19  1  0
 18 22  1  0
 19 20  2  0
 19 32  1  0
 20 21  1  0
 21 22  2  0
 21 33  1  0
M  END
$$$$

     RDKit          2D

 35 37  0  0  0  0  0  0  0  0999 V2000
   -4.1980    2.5837    0.0000 C   0  0  0  0  0  0  0  0  0  0  0  0
   -5.6262    2.1254    0.0000 C   0  0  0  0  0  0  0  0  0  0  0  0
   -5.9435    0.6593    0.0000 C   0  0  0  0  0  0  0  0  0  0  0  0
   -4.8324   -0.3484    0.0000 C   0  0  0  0  0  0  0  0  0  0  0  0
   -3.4042    0.1099    0.0000 C   0  0  0  0  0  0  0  0  0  0  0  0
   -3.0869    1.5759    0.0000 C   0  0  0  0  0  0  0  0  0  0  0  0
   -2.5269   -1.1069    0.0000 C   0  0  0  0  0  0  0  0  0  0  0  0
   -3.4131   -2.3172    0.0000 C   0  0  0  0  0  0  0  0  0  0  0  0
   -4.8379   -1.8484    0.0000 N   0  0  0  0  0  0  0  0  0  0  0  0
   -1.0270   -1.1124    0.0000 C   0  0  0  0  0  0  0  0  0  0  0  0
    0.4730   -1.1179    0.0000 C   0  0  0  0  0  0  0  0  0  0  0  0
    1.9730   -1.1234    0.0000 N   0  0  0  0  0  0  0  0  0  0  0  0
    2.7278    0.1729    0.0000 C   0  0  0  0  0  0  0  0  0  0  0  0
    1.9825    1.4747    0.0000 O   0  0  0  0  0  0  0  0  0  0  0  0
    4.2278    0.1674    0.0000 C   0  0  0  0  0  0  0  0  0  0  0  0
    4.9730   -1.1344    0.0000 C   0  0  0  0  0  0  0  0  0  0  0  0
    6.4730   -1.1399    0.0000 N   0  0  0  0  0  0  0  0  0  0  0  0
    7.2278    0.1564    0.0000 C   0  0  0  0  0  0  0  0  0  0  0  0
    6.4825    1.4582    0.0000 C   0  0  0  0  0  0  0  0  0  0  0  0
    4.9825    1.4637    0.0000 C   0  0  0  0  0  0  0  0  0  0  0  0
   -3.8807    4.0498    0.0000 H   0  0  0  0  0  0  0  0  0  0  0  0
   -6.7373    3.1332    0.0000 H   0  0  0  0  0  0  0  0  0  0  0  0
   -7.3717    0.2010    0.0000 H   0  0  0  0  0  0  0  0  0  0  0  0
   -1.6587    2.0342    0.0000 H   0  0  0  0  0  0  0  0  0  0  0  0
   -2.9548   -3.7455    0.0000 H   0  0  0  0  0  0  0  0  0  0  0  0
   -6.0547   -2.7257    0.0000 H   0  0  0  0  0  0  0  0  0  0  0  0
   -1.0215    0.3876    0.0000 H   0  0  0  0  0  0  0  0  0  0  0  0
   -1.0325   -2.6124    0.0000 H   0  0  0  0  0  0  0  0  0  0  0  0
    0.4675   -2.6179    0.0000 H   0  0  0  0  0  0  0  0  0  0  0  0
    0.4785    0.3821    0.0000 H   0  0  0  0  0  0  0  0  0  0  0  0
    2.7183   -2.4252    0.0000 H   0  0  0  0  0  0  0  0  0  0  0  0
    4.2182   -2.4307    0.0000 H   0  0  0  0  0  0  0  0  0  0  0  0
    8.7277    0.1509    0.0000 H   0  0  0  0  0  0  0  0  0  0  0  0
    7.2373    2.7545    0.0000 H   0  0  0  0  0  0  0  0  0  0  0  0
    4.2373    2.7655    0.0000 H   0  0  0  0  0  0  0  0  0  0  0  0
  1  2  2  0
  1  6  1  0
  1 21  1  0
  2  3  1  0
  2 22  1  0
  3  4  2  0
  3 23  1  0
  4  5  1  0
  4  9  1  0
  5  6  2  0
  5  7  1  0
  6 24  1  0
  7  8  2  0
  7 10  1  0
  8  9  1  0
  8 25  1  0
  9 26  1  0
 10 11  1  0
 10 27  1  0
 10 28  1  0
 11 12  1  0
 11 29  1  0
 11 30  1  0
 12 13  1  0
 12 31  1  0
 13 14  2  0
 13 15  1  0
 15 16  2  0
 15 20  1  0
 16 17  1  0
 16 32  1  0
 17 18  2  0
 18 19  1  0
 18 33  1  0
 19 20  2  0
 19 34  1  0
 20 35  1  0
M  END
$$$$

     RDKit          2D

 59 64  0  0  0  0  0  0  0  0999 V2000
   -3.8191   -4.3261    0.0000 C   0  0  0  0  0  0  0  0  0  0  0  0
   -3.6400   -2.8368    0.0000 O   0  0  0  0  0  0  0  0  0  0  0  0
   -2.2607   -2.2473    0.0000 C   0  0  0  0  0  0  0  0  0  0  0  0
   -2.0816   -0.7580    0.0000 C   0  0  0  0  0  0  0  0  0  0  0  0
   -0.7024   -0.1684    0.0000 C   0  0  0  0  0  0  0  0  0  0  0  0
    0.4979   -1.0682    0.0000 C   0  0  0  0  0  0  0  0  0  0  0  0
    0.3188   -2.5574    0.0000 C   0  0  0  0  0  0  0  0  0  0  0  0
   -1.0605   -3.1470    0.0000 C   0  0  0  0  0  0  0  0  0  0  0  0
    1.8771   -0.4786    0.0000 C   0  0  0  0  0  0  0  0  0  0  0  0
    3.0773   -1.3783    0.0000 C   0  0  0  0  0  0  0  0  0  0  0  0
    4.4566   -0.7888    0.0000 C   0  0  0  0  0  0  0  0  0  0  0  0
    4.6357    0.7005    0.0000 C   0  0  0  0  0  0  0  0  0  0  0  0
    3.4355    1.6002    0.0000 C   0  0  0  0  0  0  0  0  0  0  0  0
    2.0562    1.0107    0.0000 C   0  0  0  0  0  0  0  0  0  0  0  0
    6.0150    1.2900    0.0000 C   0  0  0  0  0  0  0  0  0  0  0  0
    7.2152    0.3903    0.0000 C   0  0  0  0  0  0  0  0  0  0  0  0
    7.0361   -1.0990    0.0000 C   0  0  0  0  0  0  0  0  0  0  0  0
    5.6568   -1.6885    0.0000 C   0  0  0  0  0  0  0  0  0  0  0  0
    8.5945    0.9799    0.0000 C   0  0  0  0  0  0  0  0  0  0  0  0
    8.7736    2.4691    0.0000 O   0  0  0  0  0  0  0  0  0  0  0  0
    9.7947    0.0801    0.0000 O   0  0  0  0  0  0  0  0  0  0  0  0
   -3.2819    0.1417    0.0000 C   0  0  0  0  0  0  0  0  0  0  0  0
   -3.1028    1.6310    0.0000 C   0  0  0  0  0  0  0  0  0  0  0  0
   -4.3030    2.5307    0.0000 C   0  0  0  0  0  0  0  0  0  0  0  0
   -5.6823    1.9412    0.0000 C   0  0  0  0  0  0  0  0  0  0  0  0
   -5.8613    0.4519    0.0000 C   0  0  0  0  0  0  0  0  0  0  0  0
   -4.6611   -0.4478    0.0000 C   0  0  0  0  0  0  0  0  0  0  0  0
   -2.6232    1.0203    0.0000 C   0  0  0  0  0  0  0  0  0  0  0  0
   -1.7235    2.2206    0.0000 C   0  0  0  0  0  0  0  0  0  0  0  0
   -2.9237    3.1203    0.0000 C   0  0  0  0  0  0  0  0  0  0  0  0
   -1.9026    0.7313    0.0000 C   0  0  0  0  0  0  0  0  0  0  0  0
   -5.3084   -4.1470    0.0000 H   0  0  0  0  0  0  0  0  0  0  0  0
   -2.3298   -4.5052    0.0000 H   0  0  0  0  0  0  0  0  0  0  0  0
   -3.9982   -5.8154    0.0000 H   0  0  0  0  0  0  0  0  0  0  0  0
   -0.3431    1.2879    0.0000 H   0  0  0  0  0  0  0  0  0  0  0  0
    1.5190   -3.4572    0.0000 H   0  0  0  0  0  0  0  0  0  0  0  0
   -1.2396   -4.6363    0.0000 H   0  0  0  0  0  0  0  0  0  0  0  0
    2.8983   -2.8676    0.0000 H   0  0  0  0  0  0  0  0  0  0  0  0
    3.6146    3.0895    0.0000 H   0  0  0  0  0  0  0  0  0  0  0  0
    0.8560    1.9104    0.0000 H   0  0  0  0  0  0  0  0  0  0  0  0
    6.1941    2.7793    0.0000 H   0  0  0  0  0  0  0  0  0  0  0  0
    8.2363   -1.9987    0.0000 H   0  0  0  0  0  0  0  0  0  0  0  0
    5.4778   -3.1778    0.0000 H   0  0  0  0  0  0  0  0  0  0  0  0
   11.1740    0.6697    0.0000 H   0  0  0  0  0  0  0  0  0  0  0  0
   -2.5233    2.3009    0.0000 H   0  0  0  0  0  0  0  0  0  0  0  0
   -2.3066    1.5913    0.0000 H   0  0  0  0  0  0  0  0  0  0  0  0
   -4.3068    4.0307    0.0000 H   0  0  0  0  0  0  0  0  0  0  0  0
   -7.1800    1.8589    0.0000 H   0  0  0  0  0  0  0  0  0  0  0  0
   -6.0234    3.4019    0.0000 H   0  0  0  0  0  0  0  0  0  0  0  0
   -7.2406   -0.1377    0.0000 H   0  0  0  0  0  0  0  0  0  0  0  0
   -3.8410   -1.7038    0.0000 H   0  0  0  0  0  0  0  0  0  0  0  0
   -5.7556   -1.4736    0.0000 H   0  0  0  0  0  0  0  0  0  0  0  0
   -1.2850    0.3427    0.0000 H   0  0  0  0  0  0  0  0  0  0  0  0
   -2.6979   -0.4778    0.0000 H   0  0  0  0  0  0  0  0  0  0  0  0
   -0.3442    2.8101    0.0000 H   0  0  0  0  0  0  0  0  0  0  0  0
   -1.8292    4.1460    0.0000 H   0  0  0  0  0  0  0  0  0  0  0  0
   -3.5846    4.4668    0.0000 H   0  0  0  0  0  0  0  0  0  0  0  0
   -1.2182   -0.6035    0.0000 H   0  0  0  0  0  0  0  0  0  0  0  0
   -0.4260    0.9955    0.0000 H   0  0  0  0  0  0  0  0  0  0  0  0
  1  2  1  0
  1 32  1  0
  1 33  1  0
  1 34  1  0
  2  3  1  0
  3  4  2  0
  3  8  1  0
  4  5  1  0
 22  4  1  1
  5  6  2  0
  5 35  1  0
  6  7  1  0
  6  9  1  0
  7  8  2  0
  7 36  1  0
  8 37  1  0
  9 10  2  0
  9 14  1  0
 10 11  1  0
 10 38  1  0
 11 12  2  0
 11 18  1  0
 12 13  1  0
 12 15  1  0
 13 14  2  0
 13 39  1  0
 14 40  1  0
 15 16  2  0
 15 41  1  0
 16 17  1  0
 16 19  1  0
 17 18  2  0
 17 42  1  0
 18 43  1  0
 19 20  2  0
 19 21  1  0
 21 44  1  0
 22 23  1  0
 22 27  1  0
 22 31  1  0
 23 24  1  0
 23 45  1  0
 23 46  1  0
 24 25  1  0
 24 30  1  0
 24 47  1  1
 25 26  1  0
 25 48  1  0
 25 49  1  0
 26 27  1  0
 26 28  1  0
 26 50  1  6
 27 51  1  0
 27 52  1  0
 28 29  1  0
 28 53  1  0
 28 54  1  0
 29 30  1  0
 29 31  1  0
 29 55  1  6
 30 56  1  0
 30 57  1  0
 31 58  1  0
 31 59  1  0
M  END
$$$$

     RDKit          2D

 48 51  0  0  0  0  0  0  0  0999 V2000
    3.0827    0.2861    0.0000 C   0  0  0  0  0  0  0  0  0  0  0  0
    1.5832    0.3267    0.0000 C   0  0  0  0  0  0  0  0  0  0  0  0
    2.3681    1.6050    0.0000 C   0  0  0  0  0  0  0  0  0  0  0  0
    3.8675    1.5644    0.0000 C   0  0  0  0  0  0  0  0  0  0  0  0
    4.5821    0.2456    0.0000 C   0  0  0  0  0  0  0  0  0  0  0  0
    6.0816    0.2050    0.0000 O   0  0  0  0  0  0  0  0  0  0  0  0
    3.7973   -1.0327    0.0000 C   0  0  0  0  0  0  0  0  0  0  0  0
    2.2978   -0.9922    0.0000 C   0  0  0  0  0  0  0  0  0  0  0  0
    1.5130   -2.2705    0.0000 C   0  0  0  0  0  0  0  0  0  0  0  0
    0.0136   -2.2299    0.0000 C   0  0  0  0  0  0  0  0  0  0  0  0
   -0.7011   -0.9111    0.0000 C   0  0  0  0  0  0  0  0  0  0  0  0
    0.0838    0.3672    0.0000 C   0  0  0  0  0  0  0  0  0  0  0  0
   -0.6308    1.6860    0.0000 C   0  0  0  0  0  0  0  0  0  0  0  0
   -2.1303    1.7266    0.0000 C   0  0  0  0  0  0  0  0  0  0  0  0
   -2.9151    0.4483    0.0000 C   0  0  0  0  0  0  0  0  0  0  0  0
   -2.2005   -0.8706    0.0000 C   0  0  0  0  0  0  0  0  0  0  0  0
   -3.2340   -1.9577    0.0000 C   0  0  0  0  0  0  0  0  0  0  0  0
   -4.5873   -1.3108    0.0000 C   0  0  0  0  0  0  0  0  0  0  0  0
   -4.3902    0.1762    0.0000 C   0  0  0  0  0  0  0  0  0  0  0  0
   -5.5953    1.0694    0.0000 O   0  0  0  0  0  0  0  0  0  0  0  0
   -3.7637    1.6852    0.0000 C   0  0  0  0  0  0  0  0  0  0  0  0
    4.5119   -2.3515    0.0000 O   0  0  0  0  0  0  0  0  0  0  0  0
    3.4759    0.9796    0.0000 H   0  0  0  0  0  0  0  0  0  0  0  0
    3.7510   -1.0568    0.0000 H   0  0  0  0  0  0  0  0  0  0  0  0
    4.5278   -0.1160    0.0000 H   0  0  0  0  0  0  0  0  0  0  0  0
    2.6684    3.0746    0.0000 H   0  0  0  0  0  0  0  0  0  0  0  0
    1.1477    2.4771    0.0000 H   0  0  0  0  0  0  0  0  0  0  0  0
    5.2904    2.0392    0.0000 H   0  0  0  0  0  0  0  0  0  0  0  0
    3.6471    3.0481    0.0000 H   0  0  0  0  0  0  0  0  0  0  0  0
    1.2127   -3.7401    0.0000 H   0  0  0  0  0  0  0  0  0  0  0  0
    2.9082   -2.8214    0.0000 H   0  0  0  0  0  0  0  0  0  0  0  0
   -1.2522   -3.0349    0.0000 H   0  0  0  0  0  0  0  0  0  0  0  0
    0.2340   -3.7136    0.0000 H   0  0  0  0  0  0  0  0  0  0  0  0
   -1.4859   -2.1894    0.0000 H   0  0  0  0  0  0  0  0  0  0  0  0
    0.8686    1.6455    0.0000 H   0  0  0  0  0  0  0  0  0  0  0  0
   -0.8513    3.1697    0.0000 H   0  0  0  0  0  0  0  0  0  0  0  0
    0.6349    2.4910    0.0000 H   0  0  0  0  0  0  0  0  0  0  0  0
   -3.3507    2.5987    0.0000 H   0  0  0  0  0  0  0  0  0  0  0  0
   -1.8300    3.1962    0.0000 H   0  0  0  0  0  0  0  0  0  0  0  0
   -1.5536    0.4828    0.0000 H   0  0  0  0  0  0  0  0  0  0  0  0
   -2.3013   -3.1325    0.0000 H   0  0  0  0  0  0  0  0  0  0  0  0
   -4.0188   -3.2360    0.0000 H   0  0  0  0  0  0  0  0  0  0  0  0
   -5.0892   -2.7244    0.0000 H   0  0  0  0  0  0  0  0  0  0  0  0
   -6.0456   -0.9594    0.0000 H   0  0  0  0  0  0  0  0  0  0  0  0
   -5.0948    0.9937    0.0000 H   0  0  0  0  0  0  0  0  0  0  0  0
   -2.5268    2.5337    0.0000 H   0  0  0  0  0  0  0  0  0  0  0  0
   -4.6122    2.9221    0.0000 H   0  0  0  0  0  0  0  0  0  0  0  0
    6.0114   -2.3921    0.0000 H   0  0  0  0  0  0  0  0  0  0  0  0
  2  1  1  6
  1 23  1  0
  1 24  1  0
  1 25  1  0
  2  3  1  0
  2  8  1  0
  2 12  1  0
  3  4  1  0
  3 26  1  0
  3 27  1  0
  4  5  1  0
  4 28  1  0
  4 29  1  0
  5  6  2  0
  5  7  1  0
  7  8  2  0
  7 22  1  0
  8  9  1  0
  9 10  1  0
  9 30  1  0
  9 31  1  0
 10 11  1  0
 10 32  1  0
 10 33  1  0
 11 12  1  0
 11 16  1  0
 11 34  1  6
 12 13  1  0
 12 35  1  1
 13 14  1  0
 13 36  1  0
 13 37  1  0
 14 15  1  0
 14 38  1  0
 14 39  1  0
 15 16  1  0
 15 19  1  0
 15 21  1  6
 16 17  1  0
 16 40  1  6
 17 18  1  0
 17 41  1  0
 17 42  1  0
 18 19  1  0
 18 43  1  0
 18 44  1  0
 19 20  2  0
 21 45  1  0
 21 46  1  0
 21 47  1  0
 22 48  1  0
M  END
$$$$

     RDKit          2D

 33 33  0  0  0  0  0  0  0  0999 V2000
    3.8763   -1.3524    0.0000 C   0  0  0  0  0  0  0  0  0  0  0  0
    2.8679   -0.2420    0.0000 C   0  0  0  0  0  0  0  0  0  0  0  0
    1.4020   -0.5602    0.0000 C   0  0  0  0  0  0  0  0  0  0  0  0
    0.3935    0.5502    0.0000 C   0  0  0  0  0  0  0  0  0  0  0  0
    0.8509    1.9787    0.0000 C   0  0  0  0  0  0  0  0  0  0  0  0
    2.3167    2.2969    0.0000 C   0  0  0  0  0  0  0  0  0  0  0  0
    3.3252    1.1865    0.0000 C   0  0  0  0  0  0  0  0  0  0  0  0
   -1.0724    0.2320    0.0000 C   0  0  0  0  0  0  0  0  0  0  0  0
   -1.3905    1.6978    0.0000 C   0  0  0  0  0  0  0  0  0  0  0  0
   -2.5382   -0.0862    0.0000 C   0  0  0  0  0  0  0  0  0  0  0  0
   -3.6573    0.9127    0.0000 C   0  0  0  0  0  0  0  0  0  0  0  0
   -4.9530    0.1571    0.0000 N   0  0  0  0  0  0  0  0  0  0  0  0
   -4.6349   -1.3088    0.0000 C   0  0  0  0  0  0  0  0  0  0  0  0
   -3.1424   -1.4591    0.0000 N   0  0  0  0  0  0  0  0  0  0  0  0
    0.9446   -1.9888    0.0000 C   0  0  0  0  0  0  0  0  0  0  0  0
   -0.7500    4.7255    0.0000 Cl  0  0  0  0  0  0  0  0  0  0  0  0
    3.0832   -2.2728    0.0000 H   0  0  0  0  0  0  0  0  0  0  0  0
    4.9867   -0.3439    0.0000 H   0  0  0  0  0  0  0  0  0  0  0  0
    4.8848   -2.4628    0.0000 H   0  0  0  0  0  0  0  0  0  0  0  0
    0.2554    2.6344    0.0000 H   0  0  0  0  0  0  0  0  0  0  0  0
    2.7741    3.7255    0.0000 H   0  0  0  0  0  0  0  0  0  0  0  0
    4.7911    1.5047    0.0000 H   0  0  0  0  0  0  0  0  0  0  0  0
   -0.9613   -0.9779    0.0000 H   0  0  0  0  0  0  0  0  0  0  0  0
   -0.5962    2.0896    0.0000 H   0  0  0  0  0  0  0  0  0  0  0  0
   -2.8564    1.3797    0.0000 H   0  0  0  0  0  0  0  0  0  0  0  0
   -1.7087    3.1637    0.0000 H   0  0  0  0  0  0  0  0  0  0  0  0
   -3.5069    2.4051    0.0000 H   0  0  0  0  0  0  0  0  0  0  0  0
   -5.6337   -2.4278    0.0000 H   0  0  0  0  0  0  0  0  0  0  0  0
   -2.3868   -2.7549    0.0000 H   0  0  0  0  0  0  0  0  0  0  0  0
   -0.2490   -1.7621    0.0000 H   0  0  0  0  0  0  0  0  0  0  0  0
    2.0480   -2.4975    0.0000 H   0  0  0  0  0  0  0  0  0  0  0  0
    0.4872   -3.4173    0.0000 H   0  0  0  0  0  0  0  0  0  0  0  0
    0.7500    4.7255    0.0000 H   0  0  0  0  0  0  0  0  0  0  0  0
  1  2  1  0
  1 17  1  0
  1 18  1  0
  1 19  1  0
  2  3  2  0
  2  7  1  0
  3  4  1  0
  3 15  1  0
  4  5  2  0
  4  8  1  0
  5  6  1  0
  5 20  1  0
  6  7  2  0
  6 21  1  0
  7 22  1  0
  8  9  1  0
  8 10  1  0
  8 23  1  1
  9 24  1  0
  9 25  1  0
  9 26  1  0
 10 11  2  0
 10 14  1  0
 11 12  1  0
 11 27  1  0
 12 13  2  0
 13 14  1  0
 13 28  1  0
 14 29  1  0
 15 30  1  0
 15 31  1  0
 15 32  1  0
 16 33  1  0
M  END
$$$$

     RDKit          2D

 45 47  0  0  0  0  0  0  0  0999 V2000
   -3.4484   -2.8455    0.0000 C   0  0  0  0  0  0  0  0  0  0  0  0
   -2.0926   -2.2038    0.0000 C   0  0  0  0  0  0  0  0  0  0  0  0
   -1.9704   -0.7087    0.0000 C   0  0  0  0  0  0  0  0  0  0  0  0
   -0.6146   -0.0671    0.0000 O   0  0  0  0  0  0  0  0  0  0  0  0
    0.6191   -0.9204    0.0000 C   0  0  0  0  0  0  0  0  0  0  0  0
    0.4969   -2.4154    0.0000 C   0  0  0  0  0  0  0  0  0  0  0  0
   -0.8589   -3.0571    0.0000 C   0  0  0  0  0  0  0  0  0  0  0  0
   -0.9811   -4.5521    0.0000 O   0  0  0  0  0  0  0  0  0  0  0  0
    1.7305   -3.2687    0.0000 C   0  0  0  0  0  0  0  0  0  0  0  0
    3.0863   -2.6270    0.0000 C   0  0  0  0  0  0  0  0  0  0  0  0
    3.2085   -1.1320    0.0000 C   0  0  0  0  0  0  0  0  0  0  0  0
    1.9749   -0.2787    0.0000 C   0  0  0  0  0  0  0  0  0  0  0  0
    2.0971    1.2163    0.0000 C   0  0  0  0  0  0  0  0  0  0  0  0
    2.2192    2.7113    0.0000 N   0  0  0  0  0  0  0  0  0  0  0  0
    0.9856    3.5647    0.0000 C   0  0  0  0  0  0  0  0  0  0  0  0
    3.5751    3.3530    0.0000 C   0  0  0  0  0  0  0  0  0  0  0  0
    4.5643   -0.4903    0.0000 O   0  0  0  0  0  0  0  0  0  0  0  0
    5.7980   -1.3436    0.0000 C   0  0  0  0  0  0  0  0  0  0  0  0
   -3.2040    0.1446    0.0000 C   0  0  0  0  0  0  0  0  0  0  0  0
   -3.0818    1.6396    0.0000 C   0  0  0  0  0  0  0  0  0  0  0  0
   -4.3154    2.4929    0.0000 C   0  0  0  0  0  0  0  0  0  0  0  0
   -5.6713    1.8512    0.0000 C   0  0  0  0  0  0  0  0  0  0  0  0
   -5.7934    0.3562    0.0000 C   0  0  0  0  0  0  0  0  0  0  0  0
   -4.5598   -0.4971    0.0000 C   0  0  0  0  0  0  0  0  0  0  0  0
   -3.9747   -2.0139    0.0000 H   0  0  0  0  0  0  0  0  0  0  0  0
   -2.8067   -4.2013    0.0000 H   0  0  0  0  0  0  0  0  0  0  0  0
   -4.8042   -3.4872    0.0000 H   0  0  0  0  0  0  0  0  0  0  0  0
    1.6083   -4.7637    0.0000 H   0  0  0  0  0  0  0  0  0  0  0  0
    4.3200   -3.4803    0.0000 H   0  0  0  0  0  0  0  0  0  0  0  0
    0.6021    1.3385    0.0000 H   0  0  0  0  0  0  0  0  0  0  0  0
    3.5921    1.0941    0.0000 H   0  0  0  0  0  0  0  0  0  0  0  0
    1.8389    4.7983    0.0000 H   0  0  0  0  0  0  0  0  0  0  0  0
    0.1323    2.3310    0.0000 H   0  0  0  0  0  0  0  0  0  0  0  0
   -0.2480    4.4180    0.0000 H   0  0  0  0  0  0  0  0  0  0  0  0
    2.9334    4.7089    0.0000 H   0  0  0  0  0  0  0  0  0  0  0  0
    4.2168    1.9972    0.0000 H   0  0  0  0  0  0  0  0  0  0  0  0
    4.9309    3.9947    0.0000 H   0  0  0  0  0  0  0  0  0  0  0  0
    6.6513   -0.1100    0.0000 H   0  0  0  0  0  0  0  0  0  0  0  0
    4.9446   -2.5773    0.0000 H   0  0  0  0  0  0  0  0  0  0  0  0
    7.0316   -2.1970    0.0000 H   0  0  0  0  0  0  0  0  0  0  0  0
   -1.7260    2.2813    0.0000 H   0  0  0  0  0  0  0  0  0  0  0  0
   -4.1933    3.9879    0.0000 H   0  0  0  0  0  0  0  0  0  0  0  0
   -6.9049    2.7045    0.0000 H   0  0  0  0  0  0  0  0  0  0  0  0
   -7.1493   -0.2855    0.0000 H   0  0  0  0  0  0  0  0  0  0  0  0
   -4.7589   -1.4609    0.0000 H   0  0  0  0  0  0  0  0  0  0  0  0
  1  2  1  0
  1 25  1  0
  1 26  1  0
  1 27  1  0
  2  3  2  0
  2  7  1  0
  3  4  1  0
  3 19  1  0
  4  5  1  0
  5  6  2  0
  5 12  1  0
  6  7  1  0
  6  9  1  0
  7  8  2  0
  9 10  2  0
  9 28  1  0
 10 11  1  0
 10 29  1  0
 11 12  2  0
 11 17  1  0
 12 13  1  0
 13 14  1  0
 13 30  1  0
 13 31  1  0
 14 15  1  0
 14 16  1  0
 15 32  1  0
 15 33  1  0
 15 34  1  0
 16 35  1  0
 16 36  1  0
 16 37  1  0
 17 18  1  0
 18 38  1  0
 18 39  1  0
 18 40  1  0
 19 20  2  0
 19 24  1  0
 20 21  1  0
 20 41  1  0
 21 22  2  0
 21 42  1  0
 22 23  1  0
 22 43  1  0
 23 24  2  0
 23 44  1  0
 24 45  1  0
M  END
$$$$

     RDKit          2D

 48 50  0  0  0  0  0  0  0  0999 V2000
    7.4752   -2.0926    0.0000 C   0  0  0  0  0  0  0  0  0  0  0  0
    6.7837   -0.7615    0.0000 O   0  0  0  0  0  0  0  0  0  0  0  0
    5.2852   -0.6948    0.0000 C   0  0  0  0  0  0  0  0  0  0  0  0
    4.4781   -1.9592    0.0000 C   0  0  0  0  0  0  0  0  0  0  0  0
    2.9796   -1.8925    0.0000 C   0  0  0  0  0  0  0  0  0  0  0  0
    2.2881   -0.5614    0.0000 C   0  0  0  0  0  0  0  0  0  0  0  0
    3.0952    0.7030    0.0000 C   0  0  0  0  0  0  0  0  0  0  0  0
    4.5937    0.6363    0.0000 C   0  0  0  0  0  0  0  0  0  0  0  0
    0.7896   -0.4947    0.0000 C   0  0  0  0  0  0  0  0  0  0  0  0
   -0.0174   -1.7591    0.0000 C   0  0  0  0  0  0  0  0  0  0  0  0
   -1.5159   -1.6924    0.0000 C   0  0  0  0  0  0  0  0  0  0  0  0
   -2.2074   -0.3613    0.0000 C   0  0  0  0  0  0  0  0  0  0  0  0
   -3.7059   -0.2946    0.0000 C   0  0  0  0  0  0  0  0  0  0  0  0
   -4.5130   -1.5590    0.0000 C   0  0  0  0  0  0  0  0  0  0  0  0
   -3.8215   -2.8901    0.0000 C   0  0  0  0  0  0  0  0  0  0  0  0
   -2.3230   -2.9568    0.0000 C   0  0  0  0  0  0  0  0  0  0  0  0
   -6.0115   -1.4923    0.0000 O   0  0  0  0  0  0  0  0  0  0  0  0
   -6.8185   -2.7567    0.0000 C   0  0  0  0  0  0  0  0  0  0  0  0
    0.6741   -3.0902    0.0000 Cl  0  0  0  0  0  0  0  0  0  0  0  0
    0.0981    0.8364    0.0000 C   0  0  0  0  0  0  0  0  0  0  0  0
   -1.4004    0.9031    0.0000 C   0  0  0  0  0  0  0  0  0  0  0  0
   -2.0919    2.2342    0.0000 C   0  0  0  0  0  0  0  0  0  0  0  0
   -1.2849    3.4986    0.0000 C   0  0  0  0  0  0  0  0  0  0  0  0
    0.2137    3.4319    0.0000 C   0  0  0  0  0  0  0  0  0  0  0  0
    0.9051    2.1008    0.0000 C   0  0  0  0  0  0  0  0  0  0  0  0
   -1.9764    4.8297    0.0000 O   0  0  0  0  0  0  0  0  0  0  0  0
   -1.1693    6.0941    0.0000 C   0  0  0  0  0  0  0  0  0  0  0  0
    8.8063   -1.4011    0.0000 H   0  0  0  0  0  0  0  0  0  0  0  0
    6.1441   -2.7841    0.0000 H   0  0  0  0  0  0  0  0  0  0  0  0
    8.1667   -3.4237    0.0000 H   0  0  0  0  0  0  0  0  0  0  0  0
    5.1696   -3.2903    0.0000 H   0  0  0  0  0  0  0  0  0  0  0  0
    2.1726   -3.1569    0.0000 H   0  0  0  0  0  0  0  0  0  0  0  0
    2.5711    2.1085    0.0000 H   0  0  0  0  0  0  0  0  0  0  0  0
    5.4007    1.9007    0.0000 H   0  0  0  0  0  0  0  0  0  0  0  0
   -1.9539    0.3945    0.0000 H   0  0  0  0  0  0  0  0  0  0  0  0
   -4.3974    1.0365    0.0000 H   0  0  0  0  0  0  0  0  0  0  0  0
   -4.6285   -4.1545    0.0000 H   0  0  0  0  0  0  0  0  0  0  0  0
   -1.6315   -4.2879    0.0000 H   0  0  0  0  0  0  0  0  0  0  0  0
   -8.0829   -1.9496    0.0000 H   0  0  0  0  0  0  0  0  0  0  0  0
   -5.5541   -3.5637    0.0000 H   0  0  0  0  0  0  0  0  0  0  0  0
   -7.6255   -4.0211    0.0000 H   0  0  0  0  0  0  0  0  0  0  0  0
   -2.4894   -0.1284    0.0000 H   0  0  0  0  0  0  0  0  0  0  0  0
   -3.5904    2.3009    0.0000 H   0  0  0  0  0  0  0  0  0  0  0  0
    1.0207    4.6963    0.0000 H   0  0  0  0  0  0  0  0  0  0  0  0
    2.4006    2.2173    0.0000 H   0  0  0  0  0  0  0  0  0  0  0  0
   -2.4337    6.9012    0.0000 H   0  0  0  0  0  0  0  0  0  0  0  0
    0.0951    5.2871    0.0000 H   0  0  0  0  0  0  0  0  0  0  0  0
   -0.3623    7.3585    0.0000 H   0  0  0  0  0  0  0  0  0  0  0  0
  1  2  1  0
  1 28  1  0
  1 29  1  0
  1 30  1  0
  2  3  1  0
  3  4  2  0
  3  8  1  0
  4  5  1  0
  4 31  1  0
  5  6  2  0
  5 32  1  0
  6  7  1  0
  6  9  1  0
  7  8  2  0
  7 33  1  0
  8 34  1  0
  9 10  2  0
  9 20  1  0
 10 11  1  0
 10 19  1  0
 11 12  2  0
 11 16  1  0
 12 13  1  0
 12 35  1  0
 13 14  2  0
 13 36  1  0
 14 15  1  0
 14 17  1  0
 15 16  2  0
 15 37  1  0
 16 38  1  0
 17 18  1  0
 18 39  1  0
 18 40  1  0
 18 41  1  0
 20 21  2  0
 20 25  1  0
 21 22  1  0
 21 42  1  0
 22 23  2  0
 22 43  1  0
 23 24  1  0
 23 26  1  0
 24 25  2  0
 24 44  1  0
 25 45  1  0
 26 27  1  0
 27 46  1  0
 27 47  1  0
 27 48  1  0
M  END
$$$$

     RDKit          2D

 22 23  0  0  0  0  0  0  0  0999 V2000
    3.0944   -0.8126    0.0000 C   0  0  0  0  0  0  0  0  0  0  0  0
    2.1580   -1.9844    0.0000 C   0  0  0  0  0  0  0  0  0  0  0  0
    0.6749   -1.7594    0.0000 C   0  0  0  0  0  0  0  0  0  0  0  0
    0.1283   -0.3625    0.0000 C   0  0  0  0  0  0  0  0  0  0  0  0
    1.0647    0.8093    0.0000 C   0  0  0  0  0  0  0  0  0  0  0  0
    2.5478    0.5842    0.0000 C   0  0  0  0  0  0  0  0  0  0  0  0
    0.5181    2.2061    0.0000 C   0  0  0  0  0  0  0  0  0  0  0  0
   -0.0285    3.6030    0.0000 F   0  0  0  0  0  0  0  0  0  0  0  0
   -0.8787    1.6595    0.0000 F   0  0  0  0  0  0  0  0  0  0  0  0
    1.9150    2.7528    0.0000 F   0  0  0  0  0  0  0  0  0  0  0  0
   -1.3547   -0.1375    0.0000 N   0  0  0  0  0  0  0  0  0  0  0  0
   -2.4085   -1.2050    0.0000 C   0  0  0  0  0  0  0  0  0  0  0  0
   -3.7493   -0.5327    0.0000 C   0  0  0  0  0  0  0  0  0  0  0  0
   -3.5243    0.9504    0.0000 N   0  0  0  0  0  0  0  0  0  0  0  0
   -2.0443    1.1946    0.0000 C   0  0  0  0  0  0  0  0  0  0  0  0
    4.5774   -1.0377    0.0000 H   0  0  0  0  0  0  0  0  0  0  0  0
    2.7046   -3.3813    0.0000 H   0  0  0  0  0  0  0  0  0  0  0  0
   -0.2615   -2.9312    0.0000 H   0  0  0  0  0  0  0  0  0  0  0  0
    3.4842    1.7560    0.0000 H   0  0  0  0  0  0  0  0  0  0  0  0
   -2.1642   -2.6850    0.0000 H   0  0  0  0  0  0  0  0  0  0  0  0
   -5.0814   -1.2223    0.0000 H   0  0  0  0  0  0  0  0  0  0  0  0
   -1.3720    2.5355    0.0000 H   0  0  0  0  0  0  0  0  0  0  0  0
  1  2  2  0
  1  6  1  0
  1 16  1  0
  2  3  1  0
  2 17  1  0
  3  4  2  0
  3 18  1  0
  4  5  1  0
  4 11  1  0
  5  6  2  0
  5  7  1  0
  6 19  1  0
  7  8  1  0
  7  9  1  0
  7 10  1  0
 11 12  1  0
 11 15  1  0
 12 13  2  0
 12 20  1  0
 13 14  1  0
 13 21  1  0
 14 15  2  0
 15 22  1  0
M  END
$$$$

     RDKit          2D

 30 31  0  0  0  0  0  0  0  0999 V2000
   -5.7434   -0.4022    0.0000 C   0  0  0  0  0  0  0  0  0  0  0  0
   -4.5276   -1.2807    0.0000 O   0  0  0  0  0  0  0  0  0  0  0  0
   -3.1588   -0.6670    0.0000 C   0  0  0  0  0  0  0  0  0  0  0  0
   -3.0059    0.8252    0.0000 C   0  0  0  0  0  0  0  0  0  0  0  0
   -1.6372    1.4389    0.0000 C   0  0  0  0  0  0  0  0  0  0  0  0
   -0.4214    0.5604    0.0000 C   0  0  0  0  0  0  0  0  0  0  0  0
   -0.5743   -0.9318    0.0000 C   0  0  0  0  0  0  0  0  0  0  0  0
   -1.9430   -1.5455    0.0000 C   0  0  0  0  0  0  0  0  0  0  0  0
    0.9473    1.1740    0.0000 C   0  0  0  0  0  0  0  0  0  0  0  0
    1.1002    2.6662    0.0000 O   0  0  0  0  0  0  0  0  0  0  0  0
    2.1632    0.2955    0.0000 C   0  0  0  0  0  0  0  0  0  0  0  0
    2.0103   -1.1967    0.0000 C   0  0  0  0  0  0  0  0  0  0  0  0
    3.2261   -2.0752    0.0000 C   0  0  0  0  0  0  0  0  0  0  0  0
    4.5948   -1.4615    0.0000 C   0  0  0  0  0  0  0  0  0  0  0  0
    4.7477    0.0307    0.0000 C   0  0  0  0  0  0  0  0  0  0  0  0
    3.5319    0.9092    0.0000 C   0  0  0  0  0  0  0  0  0  0  0  0
    3.6848    2.4014    0.0000 O   0  0  0  0  0  0  0  0  0  0  0  0
   -1.4843    2.9311    0.0000 O   0  0  0  0  0  0  0  0  0  0  0  0
   -6.6219   -1.6180    0.0000 H   0  0  0  0  0  0  0  0  0  0  0  0
   -4.8649    0.8137    0.0000 H   0  0  0  0  0  0  0  0  0  0  0  0
   -6.9592    0.4764    0.0000 H   0  0  0  0  0  0  0  0  0  0  0  0
   -4.2218    1.7037    0.0000 H   0  0  0  0  0  0  0  0  0  0  0  0
    0.1472   -1.6012    0.0000 H   0  0  0  0  0  0  0  0  0  0  0  0
   -2.0959   -3.0377    0.0000 H   0  0  0  0  0  0  0  0  0  0  0  0
    1.1680   -1.7058    0.0000 H   0  0  0  0  0  0  0  0  0  0  0  0
    3.0732   -3.5674    0.0000 H   0  0  0  0  0  0  0  0  0  0  0  0
    5.8106   -2.3400    0.0000 H   0  0  0  0  0  0  0  0  0  0  0  0
    6.1164    0.6444    0.0000 H   0  0  0  0  0  0  0  0  0  0  0  0
    5.0535    3.0151    0.0000 H   0  0  0  0  0  0  0  0  0  0  0  0
   -0.1156    3.5447    0.0000 H   0  0  0  0  0  0  0  0  0  0  0  0
  1  2  1  0
  1 19  1  0
  1 20  1  0
  1 21  1  0
  2  3  1  0
  3  4  2  0
  3  8  1  0
  4  5  1  0
  4 22  1  0
  5  6  2  0
  5 18  1  0
  6  7  1  0
  6  9  1  0
  7  8  2  0
  7 23  1  0
  8 24  1  0
  9 10  2  0
  9 11  1  0
 11 12  2  0
 11 16  1  0
 12 13  1  0
 12 25  1  0
 13 14  2  0
 13 26  1  0
 14 15  1  0
 14 27  1  0
 15 16  2  0
 15 28  1  0
 16 17  1  0
 17 29  1  0
 18 30  1  0
M  END
$$$$

     RDKit          2D

 30 32  0  0  0  0  0  0  0  0999 V2000
   -3.0430   -0.8807    0.0000 C   0  0  0  0  0  0  0  0  0  0  0  0
   -4.5377   -0.7543    0.0000 C   0  0  0  0  0  0  0  0  0  0  0  0
   -5.1755    0.6034    0.0000 C   0  0  0  0  0  0  0  0  0  0  0  0
   -6.6701    0.7298    0.0000 O   0  0  0  0  0  0  0  0  0  0  0  0
   -4.3186    1.8346    0.0000 N   0  0  0  0  0  0  0  0  0  0  0  0
   -2.8240    1.7081    0.0000 N   0  0  0  0  0  0  0  0  0  0  0  0
   -2.1862    0.3505    0.0000 C   0  0  0  0  0  0  0  0  0  0  0  0
   -0.6915    0.2240    0.0000 C   0  0  0  0  0  0  0  0  0  0  0  0
   -0.0537   -1.1337    0.0000 C   0  0  0  0  0  0  0  0  0  0  0  0
    1.4410   -1.2601    0.0000 C   0  0  0  0  0  0  0  0  0  0  0  0
    2.2978   -0.0289    0.0000 C   0  0  0  0  0  0  0  0  0  0  0  0
    1.6600    1.3287    0.0000 C   0  0  0  0  0  0  0  0  0  0  0  0
    0.1653    1.4552    0.0000 C   0  0  0  0  0  0  0  0  0  0  0  0
    3.7925   -0.1554    0.0000 N   0  0  0  0  0  0  0  0  0  0  0  0
    4.7733    0.9795    0.0000 C   0  0  0  0  0  0  0  0  0  0  0  0
    6.1557    0.3973    0.0000 C   0  0  0  0  0  0  0  0  0  0  0  0
    6.0293   -1.0973    0.0000 N   0  0  0  0  0  0  0  0  0  0  0  0
    4.5687   -1.4389    0.0000 C   0  0  0  0  0  0  0  0  0  0  0  0
   -1.6818   -1.5108    0.0000 H   0  0  0  0  0  0  0  0  0  0  0  0
   -3.4271   -2.3307    0.0000 H   0  0  0  0  0  0  0  0  0  0  0  0
   -4.4027   -2.2482    0.0000 H   0  0  0  0  0  0  0  0  0  0  0  0
   -5.9855   -1.1466    0.0000 H   0  0  0  0  0  0  0  0  0  0  0  0
   -4.9564    3.1922    0.0000 H   0  0  0  0  0  0  0  0  0  0  0  0
   -0.9106   -2.3648    0.0000 H   0  0  0  0  0  0  0  0  0  0  0  0
    2.0788   -2.6178    0.0000 H   0  0  0  0  0  0  0  0  0  0  0  0
    2.5169    2.5599    0.0000 H   0  0  0  0  0  0  0  0  0  0  0  0
   -0.4725    2.8128    0.0000 H   0  0  0  0  0  0  0  0  0  0  0  0
    4.4317    2.4401    0.0000 H   0  0  0  0  0  0  0  0  0  0  0  0
    7.4393    1.1736    0.0000 H   0  0  0  0  0  0  0  0  0  0  0  0
    3.9865   -2.8214    0.0000 H   0  0  0  0  0  0  0  0  0  0  0  0
  1  2  1  0
  1  7  1  0
  1 19  1  0
  1 20  1  0
  2  3  1  0
  2 21  1  0
  2 22  1  0
  3  4  2  0
  3  5  1  0
  5  6  1  0
  5 23  1  0
  6  7  2  0
  7  8  1  0
  8  9  2  0
  8 13  1  0
  9 10  1  0
  9 24  1  0
 10 11  2  0
 10 25  1  0
 11 12  1  0
 11 14  1  0
 12 13  2  0
 12 26  1  0
 13 27  1  0
 14 15  1  0
 14 18  1  0
 15 16  2  0
 15 28  1  0
 16 17  1  0
 16 29  1  0
 17 18  2  0
 18 30  1  0
M  END
$$$$

     RDKit          2D

 31 33  0  0  0  0  0  0  0  0999 V2000
   -3.0283   -1.1163    0.0000 C   0  0  0  0  0  0  0  0  0  0  0  0
   -4.5119   -0.8952    0.0000 C   0  0  0  0  0  0  0  0  0  0  0  0
   -5.0622    0.5002    0.0000 C   0  0  0  0  0  0  0  0  0  0  0  0
   -4.1289    1.6745    0.0000 C   0  0  0  0  0  0  0  0  0  0  0  0
   -2.6453    1.4534    0.0000 C   0  0  0  0  0  0  0  0  0  0  0  0
   -2.0950    0.0580    0.0000 C   0  0  0  0  0  0  0  0  0  0  0  0
   -0.6114   -0.1631    0.0000 C   0  0  0  0  0  0  0  0  0  0  0  0
   -0.0610   -1.5585    0.0000 C   0  0  0  0  0  0  0  0  0  0  0  0
    1.4226   -1.7796    0.0000 C   0  0  0  0  0  0  0  0  0  0  0  0
    1.9729   -3.1750    0.0000 O   0  0  0  0  0  0  0  0  0  0  0  0
    2.3559   -0.6053    0.0000 C   0  0  0  0  0  0  0  0  0  0  0  0
    3.8395   -0.8264    0.0000 C   0  0  0  0  0  0  0  0  0  0  0  0
    4.7728    0.3479    0.0000 C   0  0  0  0  0  0  0  0  0  0  0  0
    4.2224    1.7433    0.0000 C   0  0  0  0  0  0  0  0  0  0  0  0
    2.7388    1.9644    0.0000 C   0  0  0  0  0  0  0  0  0  0  0  0
    1.8055    0.7901    0.0000 C   0  0  0  0  0  0  0  0  0  0  0  0
    0.3219    1.0112    0.0000 O   0  0  0  0  0  0  0  0  0  0  0  0
    5.1557    2.9176    0.0000 O   0  0  0  0  0  0  0  0  0  0  0  0
    4.3898   -2.2218    0.0000 O   0  0  0  0  0  0  0  0  0  0  0  0
   -0.9943   -2.7328    0.0000 O   0  0  0  0  0  0  0  0  0  0  0  0
   -6.5458    0.7213    0.0000 O   0  0  0  0  0  0  0  0  0  0  0  0
   -2.4779   -2.5117    0.0000 H   0  0  0  0  0  0  0  0  0  0  0  0
   -5.4452   -2.0695    0.0000 H   0  0  0  0  0  0  0  0  0  0  0  0
   -4.6793    3.0699    0.0000 H   0  0  0  0  0  0  0  0  0  0  0  0
   -1.7120    2.6277    0.0000 H   0  0  0  0  0  0  0  0  0  0  0  0
    6.2564    0.1268    0.0000 H   0  0  0  0  0  0  0  0  0  0  0  0
    2.1885    3.3598    0.0000 H   0  0  0  0  0  0  0  0  0  0  0  0
    6.6393    2.6965    0.0000 H   0  0  0  0  0  0  0  0  0  0  0  0
    3.4565   -3.3961    0.0000 H   0  0  0  0  0  0  0  0  0  0  0  0
   -0.4440   -4.1282    0.0000 H   0  0  0  0  0  0  0  0  0  0  0  0
   -7.0962    2.1167    0.0000 H   0  0  0  0  0  0  0  0  0  0  0  0
  1  2  2  0
  1  6  1  0
  1 22  1  0
  2  3  1  0
  2 23  1  0
  3  4  2  0
  3 21  1  0
  4  5  1  0
  4 24  1  0
  5  6  2  0
  5 25  1  0
  6  7  1  0
  7  8  2  0
  7 17  1  0
  8  9  1  0
  8 20  1  0
  9 10  2  0
  9 11  1  0
 11 12  2  0
 11 16  1  0
 12 13  1  0
 12 19  1  0
 13 14  2  0
 13 26  1  0
 14 15  1  0
 14 18  1  0
 15 16  2  0
 15 27  1  0
 16 17  1  0
 18 28  1  0
 19 29  1  0
 20 30  1  0
 21 31  1  0
M  END
$$$$

     RDKit          2D

 49 49  0  0  0  0  0  0  0  0999 V2000
   -8.6094    1.6983    0.0000 C   0  0  0  0  0  0  0  0  0  0  0  0
   -8.4355    0.2084    0.0000 C   0  0  0  0  0  0  0  0  0  0  0  0
   -9.9254    0.0345    0.0000 C   0  0  0  0  0  0  0  0  0  0  0  0
   -6.9456    0.3824    0.0000 C   0  0  0  0  0  0  0  0  0  0  0  0
   -6.0500   -0.8209    0.0000 C   0  0  0  0  0  0  0  0  0  0  0  0
   -4.5602   -0.6470    0.0000 C   0  0  0  0  0  0  0  0  0  0  0  0
   -3.0703   -0.4731    0.0000 C   0  0  0  0  0  0  0  0  0  0  0  0
   -1.5804   -0.2991    0.0000 C   0  0  0  0  0  0  0  0  0  0  0  0
   -0.0905   -0.1252    0.0000 C   0  0  0  0  0  0  0  0  0  0  0  0
    1.3994    0.0487    0.0000 C   0  0  0  0  0  0  0  0  0  0  0  0
    1.9937    1.4260    0.0000 O   0  0  0  0  0  0  0  0  0  0  0  0
    2.2949   -1.1546    0.0000 N   0  0  0  0  0  0  0  0  0  0  0  0
    3.7848   -0.9806    0.0000 C   0  0  0  0  0  0  0  0  0  0  0  0
    5.2747   -0.8067    0.0000 C   0  0  0  0  0  0  0  0  0  0  0  0
    5.8690    0.5705    0.0000 C   0  0  0  0  0  0  0  0  0  0  0  0
    7.3589    0.7445    0.0000 C   0  0  0  0  0  0  0  0  0  0  0  0
    8.2545   -0.4588    0.0000 C   0  0  0  0  0  0  0  0  0  0  0  0
    7.6602   -1.8361    0.0000 C   0  0  0  0  0  0  0  0  0  0  0  0
    6.1703   -2.0100    0.0000 C   0  0  0  0  0  0  0  0  0  0  0  0
    9.7443   -0.2849    0.0000 O   0  0  0  0  0  0  0  0  0  0  0  0
    7.9532    2.1217    0.0000 O   0  0  0  0  0  0  0  0  0  0  0  0
    9.4431    2.2957    0.0000 C   0  0  0  0  0  0  0  0  0  0  0  0
   -9.4951    1.7036    0.0000 H   0  0  0  0  0  0  0  0  0  0  0  0
   -7.1519    2.0526    0.0000 H   0  0  0  0  0  0  0  0  0  0  0  0
   -8.7834    3.1882    0.0000 H   0  0  0  0  0  0  0  0  0  0  0  0
   -8.2616   -1.2814    0.0000 H   0  0  0  0  0  0  0  0  0  0  0  0
  -10.1346    0.8952    0.0000 H   0  0  0  0  0  0  0  0  0  0  0  0
   -9.7514   -1.4554    0.0000 H   0  0  0  0  0  0  0  0  0  0  0  0
  -11.4153   -0.1394    0.0000 H   0  0  0  0  0  0  0  0  0  0  0  0
   -6.1879    1.6769    0.0000 H   0  0  0  0  0  0  0  0  0  0  0  0
   -6.6444   -2.1982    0.0000 H   0  0  0  0  0  0  0  0  0  0  0  0
   -4.7341    0.8429    0.0000 H   0  0  0  0  0  0  0  0  0  0  0  0
   -4.3862   -2.1369    0.0000 H   0  0  0  0  0  0  0  0  0  0  0  0
   -2.8963   -1.9629    0.0000 H   0  0  0  0  0  0  0  0  0  0  0  0
   -3.2442    1.0168    0.0000 H   0  0  0  0  0  0  0  0  0  0  0  0
   -1.4065   -1.7890    0.0000 H   0  0  0  0  0  0  0  0  0  0  0  0
   -1.7543    1.1908    0.0000 H   0  0  0  0  0  0  0  0  0  0  0  0
   -0.2645    1.3647    0.0000 H   0  0  0  0  0  0  0  0  0  0  0  0
    0.0834   -1.6151    0.0000 H   0  0  0  0  0  0  0  0  0  0  0  0
    1.7006   -2.5318    0.0000 H   0  0  0  0  0  0  0  0  0  0  0  0
    3.9588   -2.4705    0.0000 H   0  0  0  0  0  0  0  0  0  0  0  0
    3.6109    0.5092    0.0000 H   0  0  0  0  0  0  0  0  0  0  0  0
    4.9734    1.7738    0.0000 H   0  0  0  0  0  0  0  0  0  0  0  0
    8.5557   -3.0394    0.0000 H   0  0  0  0  0  0  0  0  0  0  0  0
    5.5760   -3.3873    0.0000 H   0  0  0  0  0  0  0  0  0  0  0  0
   10.2415    0.5644    0.0000 H   0  0  0  0  0  0  0  0  0  0  0  0
    9.2691    3.7855    0.0000 H   0  0  0  0  0  0  0  0  0  0  0  0
    9.6755    1.3393    0.0000 H   0  0  0  0  0  0  0  0  0  0  0  0
   10.9330    2.4696    0.0000 H   0  0  0  0  0  0  0  0  0  0  0  0
  1  2  1  0
  1 23  1  0
  1 24  1  0
  1 25  1  0
  2  3  1  0
  2  4  1  0
  2 26  1  0
  3 27  1  0
  3 28  1  0
  3 29  1  0
  4  5  2  0
  4 30  1  0
  5  6  1  0
  5 31  1  0
  6  7  1  0
  6 32  1  0
  6 33  1  0
  7  8  1  0
  7 34  1  0
  7 35  1  0
  8  9  1  0
  8 36  1  0
  8 37  1  0
  9 10  1  0
  9 38  1  0
  9 39  1  0
 10 11  2  0
 10 12  1  0
 12 13  1  0
 12 40  1  0
 13 14  1  0
 13 41  1  0
 13 42  1  0
 14 15  2  0
 14 19  1  0
 15 16  1  0
 15 43  1  0
 16 17  2  0
 16 21  1  0
 17 18  1  0
 17 20  1  0
 18 19  2  0
 18 44  1  0
 19 45  1  0
 20 46  1  0
 21 22  1  0
 22 47  1  0
 22 48  1  0
 22 49  1  0
M  END
$$$$

     RDKit          2D

 41 42  0  0  0  0  0  0  0  0999 V2000
    0.6878   -3.8139    0.0000 C   0  0  0  0  0  0  0  0  0  0  0  0
    0.7307   -2.3145    0.0000 C   0  0  0  0  0  0  0  0  0  0  0  0
    0.7736   -0.8151    0.0000 N   0  0  0  0  0  0  0  0  0  0  0  0
    2.0935   -0.1026    0.0000 C   0  0  0  0  0  0  0  0  0  0  0  0
    3.4135    0.6100    0.0000 C   0  0  0  0  0  0  0  0  0  0  0  0
    4.6905   -0.1769    0.0000 C   0  0  0  0  0  0  0  0  0  0  0  0
    6.0105    0.5357    0.0000 C   0  0  0  0  0  0  0  0  0  0  0  0
    6.0534    2.0351    0.0000 N   0  0  0  0  0  0  0  0  0  0  0  0
    4.7763    2.8219    0.0000 C   0  0  0  0  0  0  0  0  0  0  0  0
    3.4564    2.1094    0.0000 C   0  0  0  0  0  0  0  0  0  0  0  0
   -0.5035   -0.0283    0.0000 C   0  0  0  0  0  0  0  0  0  0  0  0
   -0.3392    1.0528    0.0000 O   0  0  0  0  0  0  0  0  0  0  0  0
   -1.8234   -0.7408    0.0000 C   0  0  0  0  0  0  0  0  0  0  0  0
   -3.1434   -1.4534    0.0000 C   0  0  0  0  0  0  0  0  0  0  0  0
   -4.4633   -2.1659    0.0000 O   0  0  0  0  0  0  0  0  0  0  0  0
   -2.5360    0.5791    0.0000 C   0  0  0  0  0  0  0  0  0  0  0  0
   -1.7491    1.8562    0.0000 C   0  0  0  0  0  0  0  0  0  0  0  0
   -2.4617    3.1761    0.0000 C   0  0  0  0  0  0  0  0  0  0  0  0
   -3.9611    3.2190    0.0000 C   0  0  0  0  0  0  0  0  0  0  0  0
   -4.7479    1.9420    0.0000 C   0  0  0  0  0  0  0  0  0  0  0  0
   -4.0354    0.6220    0.0000 C   0  0  0  0  0  0  0  0  0  0  0  0
    2.1872   -3.8568    0.0000 H   0  0  0  0  0  0  0  0  0  0  0  0
   -0.8116   -3.7710    0.0000 H   0  0  0  0  0  0  0  0  0  0  0  0
    0.6449   -5.3133    0.0000 H   0  0  0  0  0  0  0  0  0  0  0  0
   -0.4790   -2.4281    0.0000 H   0  0  0  0  0  0  0  0  0  0  0  0
    2.2301   -2.3574    0.0000 H   0  0  0  0  0  0  0  0  0  0  0  0
    2.8061   -1.4225    0.0000 H   0  0  0  0  0  0  0  0  0  0  0  0
    1.3810    1.2174    0.0000 H   0  0  0  0  0  0  0  0  0  0  0  0
    4.6476   -1.6762    0.0000 H   0  0  0  0  0  0  0  0  0  0  0  0
    7.2876   -0.2512    0.0000 H   0  0  0  0  0  0  0  0  0  0  0  0
    4.8192    4.3213    0.0000 H   0  0  0  0  0  0  0  0  0  0  0  0
    2.1793    2.8962    0.0000 H   0  0  0  0  0  0  0  0  0  0  0  0
   -1.3809   -1.8724    0.0000 H   0  0  0  0  0  0  0  0  0  0  0  0
   -3.7402   -0.7989    0.0000 H   0  0  0  0  0  0  0  0  0  0  0  0
   -2.4308   -2.7733    0.0000 H   0  0  0  0  0  0  0  0  0  0  0  0
   -4.5062   -3.6653    0.0000 H   0  0  0  0  0  0  0  0  0  0  0  0
   -0.6604    1.9584    0.0000 H   0  0  0  0  0  0  0  0  0  0  0  0
   -1.6749    4.4532    0.0000 H   0  0  0  0  0  0  0  0  0  0  0  0
   -4.6736    4.5390    0.0000 H   0  0  0  0  0  0  0  0  0  0  0  0
   -6.2473    1.9849    0.0000 H   0  0  0  0  0  0  0  0  0  0  0  0
   -4.5000   -0.1321    0.0000 H   0  0  0  0  0  0  0  0  0  0  0  0
  1  2  1  0
  1 22  1  0
  1 23  1  0
  1 24  1  0
  2  3  1  0
  2 25  1  0
  2 26  1  0
  3  4  1  0
  3 11  1  0
  4  5  1  0
  4 27  1  0
  4 28  1  0
  5  6  2  0
  5 10  1  0
  6  7  1  0
  6 29  1  0
  7  8  2  0
  7 30  1  0
  8  9  1  0
  9 10  2  0
  9 31  1  0
 10 32  1  0
 11 12  2  0
 11 13  1  0
 13 14  1  0
 13 16  1  0
 13 33  1  6
 14 15  1  0
 14 34  1  0
 14 35  1  0
 15 36  1  0
 16 17  2  0
 16 21  1  0
 17 18  1  0
 17 37  1  0
 18 19  2  0
 18 38  1  0
 19 20  1  0
 19 39  1  0
 20 21  2  0
 20 40  1  0
 21 41  1  0
M  END
$$$$

     RDKit          2D

 31 31  0  0  0  0  0  0  0  0999 V2000
    5.2855   -0.9115    0.0000 C   0  0  0  0  0  0  0  0  0  0  0  0
    3.8833   -0.3788    0.0000 C   0  0  0  0  0  0  0  0  0  0  0  0
    2.4811    0.1539    0.0000 O   0  0  0  0  0  0  0  0  0  0  0  0
    1.3186   -0.7941    0.0000 P   0  0  0  0  0  0  0  0  0  0  0  0
   -0.0836   -0.2613    0.0000 O   0  0  0  0  0  0  0  0  0  0  0  0
    1.0788    0.6867    0.0000 C   0  0  0  0  0  0  0  0  0  0  0  0
    0.8391    2.1674    0.0000 C   0  0  0  0  0  0  0  0  0  0  0  0
    0.1561   -1.7420    0.0000 O   0  0  0  0  0  0  0  0  0  0  0  0
   -1.2461   -1.2093    0.0000 C   0  0  0  0  0  0  0  0  0  0  0  0
   -2.4086   -2.1573    0.0000 C   0  0  0  0  0  0  0  0  0  0  0  0
   -3.8108   -1.6245    0.0000 C   0  0  0  0  0  0  0  0  0  0  0  0
   -4.0505   -0.1438    0.0000 C   0  0  0  0  0  0  0  0  0  0  0  0
   -2.8880    0.8042    0.0000 C   0  0  0  0  0  0  0  0  0  0  0  0
   -1.4858    0.2714    0.0000 C   0  0  0  0  0  0  0  0  0  0  0  0
   -5.4527    0.3889    0.0000 N   0  0  0  0  0  0  0  0  0  0  0  0
   -6.6152   -0.5591    0.0000 O   0  0  0  0  0  0  0  0  0  0  0  0
   -5.6925    1.8696    0.0000 O   0  0  0  0  0  0  0  0  0  0  0  0
    4.7527   -2.3138    0.0000 H   0  0  0  0  0  0  0  0  0  0  0  0
    5.8182    0.4907    0.0000 H   0  0  0  0  0  0  0  0  0  0  0  0
    6.6877   -1.4443    0.0000 H   0  0  0  0  0  0  0  0  0  0  0  0
    4.4160    1.0234    0.0000 H   0  0  0  0  0  0  0  0  0  0  0  0
    3.3505   -1.7810    0.0000 H   0  0  0  0  0  0  0  0  0  0  0  0
    2.4575    1.2776    0.0000 H   0  0  0  0  0  0  0  0  0  0  0  0
    0.1155    0.8881    0.0000 H   0  0  0  0  0  0  0  0  0  0  0  0
    2.3198    2.4071    0.0000 H   0  0  0  0  0  0  0  0  0  0  0  0
   -0.6598    2.1099    0.0000 H   0  0  0  0  0  0  0  0  0  0  0  0
    0.5994    3.6481    0.0000 H   0  0  0  0  0  0  0  0  0  0  0  0
   -2.1688   -3.6380    0.0000 H   0  0  0  0  0  0  0  0  0  0  0  0
   -4.9732   -2.5725    0.0000 H   0  0  0  0  0  0  0  0  0  0  0  0
   -3.1278    2.2849    0.0000 H   0  0  0  0  0  0  0  0  0  0  0  0
   -0.8963    1.0595    0.0000 H   0  0  0  0  0  0  0  0  0  0  0  0
  1  2  1  0
  1 18  1  0
  1 19  1  0
  1 20  1  0
  2  3  1  0
  2 21  1  0
  2 22  1  0
  3  4  1  0
  4  5  2  0
  4  6  1  0
  4  8  1  0
  6  7  1  0
  6 23  1  0
  6 24  1  0
  7 25  1  0
  7 26  1  0
  7 27  1  0
  8  9  1  0
  9 10  2  0
  9 14  1  0
 10 11  1  0
 10 28  1  0
 11 12  2  0
 11 29  1  0
 12 13  1  0
 12 15  1  0
 13 14  2  0
 13 30  1  0
 14 31  1  0
 15 16  2  0
 15 17  1  0
M  CHG  2  15   1  17  -1
M  END
$$$$

     RDKit          2D

 32 32  0  0  0  0  0  0  0  0999 V2000
   -1.3452    2.9792    0.0000 C   0  0  0  0  0  0  0  0  0  0  0  0
   -0.7743    1.5921    0.0000 C   0  0  0  0  0  0  0  0  0  0  0  0
   -0.2035    0.2050    0.0000 O   0  0  0  0  0  0  0  0  0  0  0  0
   -1.1193   -0.9830    0.0000 P   0  0  0  0  0  0  0  0  0  0  0  0
   -2.0351   -2.1709    0.0000 O   0  0  0  0  0  0  0  0  0  0  0  0
   -2.3073   -0.0671    0.0000 O   0  0  0  0  0  0  0  0  0  0  0  0
   -3.6944   -0.6380    0.0000 C   0  0  0  0  0  0  0  0  0  0  0  0
   -5.0815   -1.2089    0.0000 C   0  0  0  0  0  0  0  0  0  0  0  0
    0.0687   -1.8988    0.0000 O   0  0  0  0  0  0  0  0  0  0  0  0
    1.4558   -1.3279    0.0000 C   0  0  0  0  0  0  0  0  0  0  0  0
    1.6549    0.1588    0.0000 C   0  0  0  0  0  0  0  0  0  0  0  0
    3.0421    0.7297    0.0000 C   0  0  0  0  0  0  0  0  0  0  0  0
    4.2300   -0.1862    0.0000 C   0  0  0  0  0  0  0  0  0  0  0  0
    4.0308   -1.6729    0.0000 C   0  0  0  0  0  0  0  0  0  0  0  0
    2.6437   -2.2438    0.0000 C   0  0  0  0  0  0  0  0  0  0  0  0
    5.6171    0.3847    0.0000 N   0  0  0  0  0  0  0  0  0  0  0  0
    5.8163    1.8714    0.0000 O   0  0  0  0  0  0  0  0  0  0  0  0
    6.8051   -0.5311    0.0000 O   0  0  0  0  0  0  0  0  0  0  0  0
    0.0419    3.5501    0.0000 H   0  0  0  0  0  0  0  0  0  0  0  0
   -2.7323    2.4084    0.0000 H   0  0  0  0  0  0  0  0  0  0  0  0
   -1.9161    4.3664    0.0000 H   0  0  0  0  0  0  0  0  0  0  0  0
    0.6128    2.1630    0.0000 H   0  0  0  0  0  0  0  0  0  0  0  0
   -2.1615    1.0212    0.0000 H   0  0  0  0  0  0  0  0  0  0  0  0
   -4.2653    0.7491    0.0000 H   0  0  0  0  0  0  0  0  0  0  0  0
   -3.1235   -2.0251    0.0000 H   0  0  0  0  0  0  0  0  0  0  0  0
   -5.6524    0.1782    0.0000 H   0  0  0  0  0  0  0  0  0  0  0  0
   -4.5106   -2.5960    0.0000 H   0  0  0  0  0  0  0  0  0  0  0  0
   -6.4686   -1.7798    0.0000 H   0  0  0  0  0  0  0  0  0  0  0  0
    0.4670    1.0746    0.0000 H   0  0  0  0  0  0  0  0  0  0  0  0
    3.2412    2.2164    0.0000 H   0  0  0  0  0  0  0  0  0  0  0  0
    5.2188   -2.5887    0.0000 H   0  0  0  0  0  0  0  0  0  0  0  0
    2.4446   -3.7305    0.0000 H   0  0  0  0  0  0  0  0  0  0  0  0
  1  2  1  0
  1 19  1  0
  1 20  1  0
  1 21  1  0
  2  3  1  0
  2 22  1  0
  2 23  1  0
  3  4  1  0
  4  5  2  0
  4  6  1  0
  4  9  1  0
  6  7  1  0
  7  8  1  0
  7 24  1  0
  7 25  1  0
  8 26  1  0
  8 27  1  0
  8 28  1  0
  9 10  1  0
 10 11  2  0
 10 15  1  0
 11 12  1  0
 11 29  1  0
 12 13  2  0
 12 30  1  0
 13 14  1  0
 13 16  1  0
 14 15  2  0
 14 31  1  0
 15 32  1  0
 16 17  2  0
 16 18  1  0
M  CHG  2  16   1  18  -1
M  END
$$$$

     RDKit          2D

 45 46  0  0  0  0  0  0  0  0999 V2000
    8.3397   -0.6922    0.0000 C   0  0  0  0  0  0  0  0  0  0  0  0
    6.8548   -0.4806    0.0000 C   0  0  0  0  0  0  0  0  0  0  0  0
    5.3698   -0.2690    0.0000 C   0  0  0  0  0  0  0  0  0  0  0  0
    3.8848   -0.0573    0.0000 C   0  0  0  0  0  0  0  0  0  0  0  0
    2.3998    0.1543    0.0000 C   0  0  0  0  0  0  0  0  0  0  0  0
    0.9148    0.3659    0.0000 C   0  0  0  0  0  0  0  0  0  0  0  0
    1.1264    1.8509    0.0000 C   0  0  0  0  0  0  0  0  0  0  0  0
   -0.5702    0.5776    0.0000 O   0  0  0  0  0  0  0  0  0  0  0  0
   -1.1294    1.9694    0.0000 C   0  0  0  0  0  0  0  0  0  0  0  0
   -0.5828    2.6663    0.0000 O   0  0  0  0  0  0  0  0  0  0  0  0
   -2.6144    2.1811    0.0000 C   0  0  0  0  0  0  0  0  0  0  0  0
   -4.0994    2.3927    0.0000 O   0  0  0  0  0  0  0  0  0  0  0  0
   -5.0252    1.2125    0.0000 C   0  0  0  0  0  0  0  0  0  0  0  0
   -4.4660   -0.1794    0.0000 C   0  0  0  0  0  0  0  0  0  0  0  0
   -5.3918   -1.3596    0.0000 C   0  0  0  0  0  0  0  0  0  0  0  0
   -6.8768   -1.1480    0.0000 C   0  0  0  0  0  0  0  0  0  0  0  0
   -7.4360    0.2439    0.0000 C   0  0  0  0  0  0  0  0  0  0  0  0
   -6.5102    1.4241    0.0000 C   0  0  0  0  0  0  0  0  0  0  0  0
   -7.8025   -2.3282    0.0000 Cl  0  0  0  0  0  0  0  0  0  0  0  0
   -4.8326   -2.7515    0.0000 C   0  0  0  0  0  0  0  0  0  0  0  0
   -3.3476   -2.9631    0.0000 C   0  0  0  0  0  0  0  0  0  0  0  0
   -2.4218   -1.7829    0.0000 C   0  0  0  0  0  0  0  0  0  0  0  0
   -2.9810   -0.3910    0.0000 N   0  0  0  0  0  0  0  0  0  0  0  0
    8.5514    0.7928    0.0000 H   0  0  0  0  0  0  0  0  0  0  0  0
    8.1281   -2.1772    0.0000 H   0  0  0  0  0  0  0  0  0  0  0  0
    9.8247   -0.9039    0.0000 H   0  0  0  0  0  0  0  0  0  0  0  0
    6.6431   -1.9656    0.0000 H   0  0  0  0  0  0  0  0  0  0  0  0
    7.0664    1.0044    0.0000 H   0  0  0  0  0  0  0  0  0  0  0  0
    5.5814    1.2160    0.0000 H   0  0  0  0  0  0  0  0  0  0  0  0
    5.1581   -1.7540    0.0000 H   0  0  0  0  0  0  0  0  0  0  0  0
    3.6731   -1.5423    0.0000 H   0  0  0  0  0  0  0  0  0  0  0  0
    4.0964    1.4277    0.0000 H   0  0  0  0  0  0  0  0  0  0  0  0
    2.6307    1.0094    0.0000 H   0  0  0  0  0  0  0  0  0  0  0  0
    2.1881   -1.3307    0.0000 H   0  0  0  0  0  0  0  0  0  0  0  0
    0.7031   -1.1191    0.0000 H   0  0  0  0  0  0  0  0  0  0  0  0
    2.0120    1.8338    0.0000 H   0  0  0  0  0  0  0  0  0  0  0  0
    0.3058    2.1844    0.0000 H   0  0  0  0  0  0  0  0  0  0  0  0
    1.3380    3.3359    0.0000 H   0  0  0  0  0  0  0  0  0  0  0  0
   -2.4028    3.6661    0.0000 H   0  0  0  0  0  0  0  0  0  0  0  0
   -2.8261    0.6961    0.0000 H   0  0  0  0  0  0  0  0  0  0  0  0
   -8.9210    0.4555    0.0000 H   0  0  0  0  0  0  0  0  0  0  0  0
   -7.0694    2.8160    0.0000 H   0  0  0  0  0  0  0  0  0  0  0  0
   -5.7583   -3.9317    0.0000 H   0  0  0  0  0  0  0  0  0  0  0  0
   -2.7883   -4.3550    0.0000 H   0  0  0  0  0  0  0  0  0  0  0  0
   -0.9368   -1.9945    0.0000 H   0  0  0  0  0  0  0  0  0  0  0  0
  1  2  1  0
  1 24  1  0
  1 25  1  0
  1 26  1  0
  2  3  1  0
  2 27  1  0
  2 28  1  0
  3  4  1  0
  3 29  1  0
  3 30  1  0
  4  5  1  0
  4 31  1  0
  4 32  1  0
  5  6  1  0
  5 33  1  0
  5 34  1  0
  6  7  1  0
  6  8  1  0
  6 35  1  1
  7 36  1  0
  7 37  1  0
  7 38  1  0
  8  9  1  0
  9 10  2  0
  9 11  1  0
 11 12  1  0
 11 39  1  0
 11 40  1  0
 12 13  1  0
 13 14  2  0
 13 18  1  0
 14 15  1  0
 14 23  1  0
 15 16  2  0
 15 20  1  0
 16 17  1  0
 16 19  1  0
 17 18  2  0
 17 41  1  0
 18 42  1  0
 20 21  2  0
 20 43  1  0
 21 22  1  0
 21 44  1  0
 22 23  2  0
 22 45  1  0
M  END
$$$$

     RDKit          2D

 35 35  0  0  0  0  0  0  0  0999 V2000
    3.9775    0.0462    0.0000 C   0  0  0  0  0  0  0  0  0  0  0  0
    2.8550    1.0412    0.0000 C   0  0  0  0  0  0  0  0  0  0  0  0
    3.0002    2.5342    0.0000 C   0  0  0  0  0  0  0  0  0  0  0  0
    1.6252    3.1336    0.0000 S   0  0  0  0  0  0  0  0  0  0  0  0
    0.6302    2.0111    0.0000 C   0  0  0  0  0  0  0  0  0  0  0  0
    1.3903    0.7180    0.0000 C   0  0  0  0  0  0  0  0  0  0  0  0
    0.7908   -0.6571    0.0000 N   0  0  0  0  0  0  0  0  0  0  0  0
   -0.6997   -0.8254    0.0000 C   0  0  0  0  0  0  0  0  0  0  0  0
   -0.8681    0.6651    0.0000 C   0  0  0  0  0  0  0  0  0  0  0  0
   -2.1902   -0.9938    0.0000 C   0  0  0  0  0  0  0  0  0  0  0  0
   -3.6807   -1.1622    0.0000 O   0  0  0  0  0  0  0  0  0  0  0  0
   -4.5718    0.0445    0.0000 C   0  0  0  0  0  0  0  0  0  0  0  0
    1.6819   -1.8637    0.0000 C   0  0  0  0  0  0  0  0  0  0  0  0
    2.8969   -1.8755    0.0000 O   0  0  0  0  0  0  0  0  0  0  0  0
    1.0825   -3.2387    0.0000 C   0  0  0  0  0  0  0  0  0  0  0  0
    0.4830   -4.6137    0.0000 Cl  0  0  0  0  0  0  0  0  0  0  0  0
   -0.8627    2.1563    0.0000 C   0  0  0  0  0  0  0  0  0  0  0  0
    3.2884   -0.9545    0.0000 H   0  0  0  0  0  0  0  0  0  0  0  0
    4.9725    1.1687    0.0000 H   0  0  0  0  0  0  0  0  0  0  0  0
    5.1000   -0.9488    0.0000 H   0  0  0  0  0  0  0  0  0  0  0  0
    4.2934    3.2942    0.0000 H   0  0  0  0  0  0  0  0  0  0  0  0
   -0.7143   -2.3254    0.0000 H   0  0  0  0  0  0  0  0  0  0  0  0
   -2.3680    0.6797    0.0000 H   0  0  0  0  0  0  0  0  0  0  0  0
    0.5374    1.1891    0.0000 H   0  0  0  0  0  0  0  0  0  0  0  0
   -1.1466    1.4120    0.0000 H   0  0  0  0  0  0  0  0  0  0  0  0
   -2.5390    0.4651    0.0000 H   0  0  0  0  0  0  0  0  0  0  0  0
   -2.0218   -2.4843    0.0000 H   0  0  0  0  0  0  0  0  0  0  0  0
   -5.7784   -0.8466    0.0000 H   0  0  0  0  0  0  0  0  0  0  0  0
   -3.3652    0.9355    0.0000 H   0  0  0  0  0  0  0  0  0  0  0  0
   -5.4629    1.2511    0.0000 H   0  0  0  0  0  0  0  0  0  0  0  0
   -0.3554   -2.8114    0.0000 H   0  0  0  0  0  0  0  0  0  0  0  0
    2.4575   -3.8382    0.0000 H   0  0  0  0  0  0  0  0  0  0  0  0
   -0.7175    3.6493    0.0000 H   0  0  0  0  0  0  0  0  0  0  0  0
   -1.3649    0.7429    0.0000 H   0  0  0  0  0  0  0  0  0  0  0  0
   -2.3557    2.3015    0.0000 H   0  0  0  0  0  0  0  0  0  0  0  0
  1  2  1  0
  1 18  1  0
  1 19  1  0
  1 20  1  0
  2  3  2  0
  2  6  1  0
  3  4  1  0
  3 21  1  0
  4  5  1  0
  5  6  2  0
  5 17  1  0
  6  7  1  0
  7  8  1  0
  7 13  1  0
  8  9  1  0
  8 10  1  0
  8 22  1  1
  9 23  1  0
  9 24  1  0
  9 25  1  0
 10 11  1  0
 10 26  1  0
 10 27  1  0
 11 12  1  0
 12 28  1  0
 12 29  1  0
 12 30  1  0
 13 14  2  0
 13 15  1  0
 15 16  1  0
 15 31  1  0
 15 32  1  0
 17 33  1  0
 17 34  1  0
 17 35  1  0
M  END
$$$$

     RDKit          2D

 32 33  0  0  0  0  0  0  0  0999 V2000
   -2.6791    2.1521    0.0000 C   0  0  0  0  0  0  0  0  0  0  0  0
   -2.6344    0.6528    0.0000 C   0  0  0  0  0  0  0  0  0  0  0  0
   -3.8211   -0.2647    0.0000 C   0  0  0  0  0  0  0  0  0  0  0  0
   -3.3153   -1.6768    0.0000 O   0  0  0  0  0  0  0  0  0  0  0  0
   -1.8160   -1.6321    0.0000 C   0  0  0  0  0  0  0  0  0  0  0  0
   -1.3952   -0.1923    0.0000 C   0  0  0  0  0  0  0  0  0  0  0  0
    0.0170    0.3135    0.0000 C   0  0  0  0  0  0  0  0  0  0  0  0
    0.2850    1.7894    0.0000 O   0  0  0  0  0  0  0  0  0  0  0  0
    1.1611   -0.6565    0.0000 N   0  0  0  0  0  0  0  0  0  0  0  0
    2.5733   -0.1507    0.0000 C   0  0  0  0  0  0  0  0  0  0  0  0
    2.8413    1.3252    0.0000 C   0  0  0  0  0  0  0  0  0  0  0  0
    4.2534    1.8310    0.0000 C   0  0  0  0  0  0  0  0  0  0  0  0
    5.3975    0.8610    0.0000 C   0  0  0  0  0  0  0  0  0  0  0  0
    5.1295   -0.6149    0.0000 C   0  0  0  0  0  0  0  0  0  0  0  0
    3.7174   -1.1207    0.0000 C   0  0  0  0  0  0  0  0  0  0  0  0
   -0.8985   -2.8188    0.0000 C   0  0  0  0  0  0  0  0  0  0  0  0
   -5.2609    0.1562    0.0000 C   0  0  0  0  0  0  0  0  0  0  0  0
   -4.1727    2.2905    0.0000 H   0  0  0  0  0  0  0  0  0  0  0  0
   -1.1798    2.1968    0.0000 H   0  0  0  0  0  0  0  0  0  0  0  0
   -2.7238    3.6515    0.0000 H   0  0  0  0  0  0  0  0  0  0  0  0
    1.0914   -1.8695    0.0000 H   0  0  0  0  0  0  0  0  0  0  0  0
    1.6971    2.2952    0.0000 H   0  0  0  0  0  0  0  0  0  0  0  0
    4.5214    3.3069    0.0000 H   0  0  0  0  0  0  0  0  0  0  0  0
    6.8097    1.3668    0.0000 H   0  0  0  0  0  0  0  0  0  0  0  0
    6.2737   -1.5849    0.0000 H   0  0  0  0  0  0  0  0  0  0  0  0
    3.4494   -2.5966    0.0000 H   0  0  0  0  0  0  0  0  0  0  0  0
   -2.0852   -3.7363    0.0000 H   0  0  0  0  0  0  0  0  0  0  0  0
    0.1461   -2.1984    0.0000 H   0  0  0  0  0  0  0  0  0  0  0  0
    0.0189   -4.0055    0.0000 H   0  0  0  0  0  0  0  0  0  0  0  0
   -5.6817   -1.2836    0.0000 H   0  0  0  0  0  0  0  0  0  0  0  0
   -5.0187    1.6365    0.0000 H   0  0  0  0  0  0  0  0  0  0  0  0
   -6.7007    0.5770    0.0000 H   0  0  0  0  0  0  0  0  0  0  0  0
  1  2  1  0
  1 18  1  0
  1 19  1  0
  1 20  1  0
  2  3  2  0
  2  6  1  0
  3  4  1  0
  3 17  1  0
  4  5  1  0
  5  6  2  0
  5 16  1  0
  6  7  1  0
  7  8  2  0
  7  9  1  0
  9 10  1  0
  9 21  1  0
 10 11  2  0
 10 15  1  0
 11 12  1  0
 11 22  1  0
 12 13  2  0
 12 23  1  0
 13 14  1  0
 13 24  1  0
 14 15  2  0
 14 25  1  0
 15 26  1  0
 16 27  1  0
 16 28  1  0
 16 29  1  0
 17 30  1  0
 17 31  1  0
 17 32  1  0
M  END
$$$$

     RDKit          2D

 36 37  0  0  0  0  0  0  0  0999 V2000
   -5.4897    0.9014    0.0000 C   0  0  0  0  0  0  0  0  0  0  0  0
   -4.0840    1.4249    0.0000 C   0  0  0  0  0  0  0  0  0  0  0  0
   -2.6783    1.9484    0.0000 O   0  0  0  0  0  0  0  0  0  0  0  0
   -1.5221    0.9928    0.0000 P   0  0  0  0  0  0  0  0  0  0  0  0
   -1.7716   -0.4863    0.0000 S   0  0  0  0  0  0  0  0  0  0  0  0
   -2.9278    0.4693    0.0000 O   0  0  0  0  0  0  0  0  0  0  0  0
   -3.1773   -1.0098    0.0000 C   0  0  0  0  0  0  0  0  0  0  0  0
   -3.4268   -2.4889    0.0000 C   0  0  0  0  0  0  0  0  0  0  0  0
   -0.3659    0.0372    0.0000 S   0  0  0  0  0  0  0  0  0  0  0  0
    1.0398    0.5607    0.0000 C   0  0  0  0  0  0  0  0  0  0  0  0
    2.4455    1.0842    0.0000 N   0  0  0  0  0  0  0  0  0  0  0  0
    3.6952    0.2546    0.0000 C   0  0  0  0  0  0  0  0  0  0  0  0
    4.8703    1.1869    0.0000 C   0  0  0  0  0  0  0  0  0  0  0  0
    6.2653    0.6353    0.0000 C   0  0  0  0  0  0  0  0  0  0  0  0
    6.4851   -0.8485    0.0000 C   0  0  0  0  0  0  0  0  0  0  0  0
    5.3099   -1.7807    0.0000 C   0  0  0  0  0  0  0  0  0  0  0  0
    3.9150   -1.2292    0.0000 C   0  0  0  0  0  0  0  0  0  0  0  0
    7.8800   -1.4000    0.0000 Cl  0  0  0  0  0  0  0  0  0  0  0  0
    4.3469    2.5926    0.0000 O   0  0  0  0  0  0  0  0  0  0  0  0
    2.8482    2.5291    0.0000 C   0  0  0  0  0  0  0  0  0  0  0  0
    1.9160    3.7042    0.0000 O   0  0  0  0  0  0  0  0  0  0  0  0
   -5.2076   -0.2804    0.0000 H   0  0  0  0  0  0  0  0  0  0  0  0
   -6.0132    2.3071    0.0000 H   0  0  0  0  0  0  0  0  0  0  0  0
   -6.8954    0.3779    0.0000 H   0  0  0  0  0  0  0  0  0  0  0  0
   -3.9162   -0.0657    0.0000 H   0  0  0  0  0  0  0  0  0  0  0  0
   -4.6075    2.8306    0.0000 H   0  0  0  0  0  0  0  0  0  0  0  0
   -4.3911   -0.9553    0.0000 H   0  0  0  0  0  0  0  0  0  0  0  0
   -1.8025   -1.6098    0.0000 H   0  0  0  0  0  0  0  0  0  0  0  0
   -4.9059   -2.2394    0.0000 H   0  0  0  0  0  0  0  0  0  0  0  0
   -1.9477   -2.7384    0.0000 H   0  0  0  0  0  0  0  0  0  0  0  0
   -3.6763   -3.9680    0.0000 H   0  0  0  0  0  0  0  0  0  0  0  0
    1.5633   -0.8450    0.0000 H   0  0  0  0  0  0  0  0  0  0  0  0
    0.5163    1.9664    0.0000 H   0  0  0  0  0  0  0  0  0  0  0  0
    7.4404    1.5676    0.0000 H   0  0  0  0  0  0  0  0  0  0  0  0
    5.5297   -3.2645    0.0000 H   0  0  0  0  0  0  0  0  0  0  0  0
    2.7399   -2.1614    0.0000 H   0  0  0  0  0  0  0  0  0  0  0  0
  1  2  1  0
  1 22  1  0
  1 23  1  0
  1 24  1  0
  2  3  1  0
  2 25  1  0
  2 26  1  0
  3  4  1  0
  4  5  2  0
  4  6  1  0
  4  9  1  0
  6  7  1  0
  7  8  1  0
  7 27  1  0
  7 28  1  0
  8 29  1  0
  8 30  1  0
  8 31  1  0
  9 10  1  0
 10 11  1  0
 10 32  1  0
 10 33  1  0
 11 12  1  0
 11 20  1  0
 12 13  2  0
 12 17  1  0
 13 14  1  0
 13 19  1  0
 14 15  2  0
 14 34  1  0
 15 16  1  0
 15 18  1  0
 16 17  2  0
 16 35  1  0
 17 36  1  0
 19 20  1  0
 20 21  2  0
M  END
$$$$

     RDKit          2D

 38 35  0  0  0  0  0  0  0  0999 V2000
   -1.2590   -1.5338    0.0000 C   0  0  0  0  0  0  0  0  0  0  0  0
   -2.7374   -1.7872    0.0000 C   0  0  0  0  0  0  0  0  0  0  0  0
   -3.6961   -0.6336    0.0000 C   0  0  0  0  0  0  0  0  0  0  0  0
   -3.1763    0.7735    0.0000 C   0  0  0  0  0  0  0  0  0  0  0  0
   -1.6979    1.0269    0.0000 C   0  0  0  0  0  0  0  0  0  0  0  0
   -0.7392   -0.1267    0.0000 C   0  0  0  0  0  0  0  0  0  0  0  0
    0.7392    0.1267    0.0000 C   0  0  0  0  0  0  0  0  0  0  0  0
    1.6979   -1.0269    0.0000 C   0  0  0  0  0  0  0  0  0  0  0  0
    3.1763   -0.7735    0.0000 C   0  0  0  0  0  0  0  0  0  0  0  0
    3.6961    0.6336    0.0000 C   0  0  0  0  0  0  0  0  0  0  0  0
    2.7374    1.7872    0.0000 C   0  0  0  0  0  0  0  0  0  0  0  0
    1.2590    1.5338    0.0000 C   0  0  0  0  0  0  0  0  0  0  0  0
    5.1745    0.8870    0.0000 N   0  0  0  0  0  0  0  0  0  0  0  0
    4.1350   -1.9272    0.0000 N   0  0  0  0  0  0  0  0  0  0  0  0
   -4.1350    1.9272    0.0000 N   0  0  0  0  0  0  0  0  0  0  0  0
   -5.1745   -0.8870    0.0000 N   0  0  0  0  0  0  0  0  0  0  0  0
   -0.7500    4.3342    0.0000 Cl  0  0  0  0  0  0  0  0  0  0  0  0
   -0.7500    5.3342    0.0000 Cl  0  0  0  0  0  0  0  0  0  0  0  0
   -0.7500    6.3342    0.0000 Cl  0  0  0  0  0  0  0  0  0  0  0  0
   -0.7500    7.3342    0.0000 Cl  0  0  0  0  0  0  0  0  0  0  0  0
   -0.3003   -2.6874    0.0000 H   0  0  0  0  0  0  0  0  0  0  0  0
   -3.2572   -3.1943    0.0000 H   0  0  0  0  0  0  0  0  0  0  0  0
   -1.1782    2.4340    0.0000 H   0  0  0  0  0  0  0  0  0  0  0  0
    1.1782   -2.4340    0.0000 H   0  0  0  0  0  0  0  0  0  0  0  0
    3.2572    3.1943    0.0000 H   0  0  0  0  0  0  0  0  0  0  0  0
    0.3003    2.6874    0.0000 H   0  0  0  0  0  0  0  0  0  0  0  0
    5.6943    2.2941    0.0000 H   0  0  0  0  0  0  0  0  0  0  0  0
    6.1332   -0.2667    0.0000 H   0  0  0  0  0  0  0  0  0  0  0  0
    5.6135   -1.6738    0.0000 H   0  0  0  0  0  0  0  0  0  0  0  0
    3.6153   -3.3342    0.0000 H   0  0  0  0  0  0  0  0  0  0  0  0
   -3.6153    3.3342    0.0000 H   0  0  0  0  0  0  0  0  0  0  0  0
   -5.6135    1.6738    0.0000 H   0  0  0  0  0  0  0  0  0  0  0  0
   -6.1332    0.2667    0.0000 H   0  0  0  0  0  0  0  0  0  0  0  0
   -5.6943   -2.2941    0.0000 H   0  0  0  0  0  0  0  0  0  0  0  0
    0.7500    4.3342    0.0000 H   0  0  0  0  0  0  0  0  0  0  0  0
    0.7500    5.3342    0.0000 H   0  0  0  0  0  0  0  0  0  0  0  0
    0.7500    6.3342    0.0000 H   0  0  0  0  0  0  0  0  0  0  0  0
    0.7500    7.3342    0.0000 H   0  0  0  0  0  0  0  0  0  0  0  0
  1  2  2  0
  1  6  1  0
  1 21  1  0
  2  3  1  0
  2 22  1  0
  3  4  2  0
  3 16  1  0
  4  5  1  0
  4 15  1  0
  5  6  2  0
  5 23  1  0
  6  7  1  0
  7  8  2  0
  7 12  1  0
  8  9  1  0
  8 24  1  0
  9 10  2  0
  9 14  1  0
 10 11  1  0
 10 13  1  0
 11 12  2  0
 11 25  1  0
 12 26  1  0
 13 27  1  0
 13 28  1  0
 14 29  1  0
 14 30  1  0
 15 31  1  0
 15 32  1  0
 16 33  1  0
 16 34  1  0
 17 35  1  0
 18 36  1  0
 19 37  1  0
 20 38  1  0
M  END
$$$$

     RDKit          2D

 32 33  0  0  0  0  0  0  0  0999 V2000
   -2.5824   -3.2726    0.0000 C   0  0  0  0  0  0  0  0  0  0  0  0
   -1.7449   -2.0282    0.0000 C   0  0  0  0  0  0  0  0  0  0  0  0
   -0.9073   -0.7838    0.0000 N   0  0  0  0  0  0  0  0  0  0  0  0
    0.5917   -0.7299    0.0000 C   0  0  0  0  0  0  0  0  0  0  0  0
    1.0037    0.7124    0.0000 C   0  0  0  0  0  0  0  0  0  0  0  0
    2.4588    1.0768    0.0000 C   0  0  0  0  0  0  0  0  0  0  0  0
    3.5018   -0.0012    0.0000 C   0  0  0  0  0  0  0  0  0  0  0  0
    3.0899   -1.4435    0.0000 C   0  0  0  0  0  0  0  0  0  0  0  0
    1.6348   -1.8079    0.0000 C   0  0  0  0  0  0  0  0  0  0  0  0
    4.9569    0.3632    0.0000 N   0  0  0  0  0  0  0  0  0  0  0  0
   -0.2407    1.5499    0.0000 C   0  0  0  0  0  0  0  0  0  0  0  0
   -0.4510    3.0351    0.0000 C   0  0  0  0  0  0  0  0  0  0  0  0
   -1.8423    3.5956    0.0000 C   0  0  0  0  0  0  0  0  0  0  0  0
   -3.0234    2.6709    0.0000 C   0  0  0  0  0  0  0  0  0  0  0  0
   -2.8131    1.1857    0.0000 C   0  0  0  0  0  0  0  0  0  0  0  0
   -1.4218    0.6252    0.0000 C   0  0  0  0  0  0  0  0  0  0  0  0
   -0.7500    6.0808    0.0000 Cl  0  0  0  0  0  0  0  0  0  0  0  0
   -1.3380   -4.1101    0.0000 H   0  0  0  0  0  0  0  0  0  0  0  0
   -3.8268   -2.4351    0.0000 H   0  0  0  0  0  0  0  0  0  0  0  0
   -3.4199   -4.5170    0.0000 H   0  0  0  0  0  0  0  0  0  0  0  0
   -2.9893   -1.1907    0.0000 H   0  0  0  0  0  0  0  0  0  0  0  0
   -0.5004   -2.8657    0.0000 H   0  0  0  0  0  0  0  0  0  0  0  0
    2.8707    2.5191    0.0000 H   0  0  0  0  0  0  0  0  0  0  0  0
    4.1329   -2.5215    0.0000 H   0  0  0  0  0  0  0  0  0  0  0  0
    1.2228   -3.2502    0.0000 H   0  0  0  0  0  0  0  0  0  0  0  0
    6.0000   -0.7148    0.0000 H   0  0  0  0  0  0  0  0  0  0  0  0
    5.3689    1.8055    0.0000 H   0  0  0  0  0  0  0  0  0  0  0  0
    0.7301    3.9598    0.0000 H   0  0  0  0  0  0  0  0  0  0  0  0
   -2.0526    5.0808    0.0000 H   0  0  0  0  0  0  0  0  0  0  0  0
   -4.4148    3.2314    0.0000 H   0  0  0  0  0  0  0  0  0  0  0  0
   -3.9942    0.2610    0.0000 H   0  0  0  0  0  0  0  0  0  0  0  0
    0.7500    6.0808    0.0000 H   0  0  0  0  0  0  0  0  0  0  0  0
  1  2  1  0
  1 18  1  0
  1 19  1  0
  1 20  1  0
  2  3  1  0
  2 21  1  0
  2 22  1  0
  3  4  1  0
  3 16  1  0
  4  5  2  0
  4  9  1  0
  5  6  1  0
  5 11  1  0
  6  7  2  0
  6 23  1  0
  7  8  1  0
  7 10  1  0
  8  9  2  0
  8 24  1  0
  9 25  1  0
 10 26  1  0
 10 27  1  0
 11 12  1  0
 11 16  2  0
 12 13  2  0
 12 28  1  0
 13 14  1  0
 13 29  1  0
 14 15  2  0
 14 30  1  0
 15 16  1  0
 15 31  1  0
 17 32  1  0
M  END
$$$$

     RDKit          2D

 31 32  0  0  0  0  0  0  0  0999 V2000
   -4.2472   -1.3344    0.0000 C   0  0  0  0  0  0  0  0  0  0  0  0
   -2.8806   -1.9527    0.0000 C   0  0  0  0  0  0  0  0  0  0  0  0
   -1.6618   -1.0783    0.0000 C   0  0  0  0  0  0  0  0  0  0  0  0
   -1.8097    0.4144    0.0000 C   0  0  0  0  0  0  0  0  0  0  0  0
   -3.1763    1.0327    0.0000 C   0  0  0  0  0  0  0  0  0  0  0  0
   -4.3951    0.1583    0.0000 C   0  0  0  0  0  0  0  0  0  0  0  0
   -5.7617    0.7766    0.0000 C   0  0  0  0  0  0  0  0  0  0  0  0
   -7.1284    1.3949    0.0000 F   0  0  0  0  0  0  0  0  0  0  0  0
   -6.3800   -0.5901    0.0000 F   0  0  0  0  0  0  0  0  0  0  0  0
   -5.1434    2.1432    0.0000 F   0  0  0  0  0  0  0  0  0  0  0  0
   -1.0859    1.0813    0.0000 Cl  0  0  0  0  0  0  0  0  0  0  0  0
   -0.2951   -1.6965    0.0000 O   0  0  0  0  0  0  0  0  0  0  0  0
    0.9236   -0.8221    0.0000 C   0  0  0  0  0  0  0  0  0  0  0  0
    2.2903   -1.4404    0.0000 C   0  0  0  0  0  0  0  0  0  0  0  0
    3.5091   -0.5660    0.0000 C   0  0  0  0  0  0  0  0  0  0  0  0
    3.3612    0.9267    0.0000 C   0  0  0  0  0  0  0  0  0  0  0  0
    1.9945    1.5450    0.0000 C   0  0  0  0  0  0  0  0  0  0  0  0
    0.7758    0.6706    0.0000 C   0  0  0  0  0  0  0  0  0  0  0  0
    4.5800    1.8011    0.0000 N   0  0  0  0  0  0  0  0  0  0  0  0
    5.9466    1.1828    0.0000 O   0  0  0  0  0  0  0  0  0  0  0  0
    4.4321    3.2938    0.0000 O   0  0  0  0  0  0  0  0  0  0  0  0
    4.8757   -1.1843    0.0000 C   0  0  0  0  0  0  0  0  0  0  0  0
    5.0236   -2.6770    0.0000 O   0  0  0  0  0  0  0  0  0  0  0  0
    6.0945   -0.3099    0.0000 O   0  0  0  0  0  0  0  0  0  0  0  0
   -5.4660   -2.2088    0.0000 H   0  0  0  0  0  0  0  0  0  0  0  0
   -2.7327   -3.4454    0.0000 H   0  0  0  0  0  0  0  0  0  0  0  0
   -3.3242    2.5254    0.0000 H   0  0  0  0  0  0  0  0  0  0  0  0
    2.4382   -2.9331    0.0000 H   0  0  0  0  0  0  0  0  0  0  0  0
    1.8467    3.0377    0.0000 H   0  0  0  0  0  0  0  0  0  0  0  0
   -0.0648    1.1825    0.0000 H   0  0  0  0  0  0  0  0  0  0  0  0
    7.4611   -0.9282    0.0000 H   0  0  0  0  0  0  0  0  0  0  0  0
  1  2  2  0
  1  6  1  0
  1 25  1  0
  2  3  1  0
  2 26  1  0
  3  4  2  0
  3 12  1  0
  4  5  1  0
  4 11  1  0
  5  6  2  0
  5 27  1  0
  6  7  1  0
  7  8  1  0
  7  9  1  0
  7 10  1  0
 12 13  1  0
 13 14  2  0
 13 18  1  0
 14 15  1  0
 14 28  1  0
 15 16  2  0
 15 22  1  0
 16 17  1  0
 16 19  1  0
 17 18  2  0
 17 29  1  0
 18 30  1  0
 19 20  2  0
 19 21  1  0
 22 23  2  0
 22 24  1  0
 24 31  1  0
M  CHG  2  19   1  21  -1
M  END
$$$$

     RDKit          2D

 41 43  0  0  1  0  0  0  0  0999 V2000
    2.2470    3.1410    0.0000 C   0  0  0  0  0  0  0  0  0  0  0  0
    2.0979    1.6484    0.0000 C   0  0  0  0  0  0  0  0  0  0  0  0
    3.5936    1.7607    0.0000 C   0  0  0  0  0  0  0  0  0  0  0  0
    4.4388    0.5215    0.0000 C   0  0  0  0  0  0  0  0  0  0  0  0
    5.9346    0.6338    0.0000 O   0  0  0  0  0  0  0  0  0  0  0  0
    3.7882   -0.8301    0.0000 C   0  0  0  0  0  0  0  0  0  0  0  0
    2.2924   -0.9424    0.0000 C   0  0  0  0  0  0  0  0  0  0  0  0
    1.4472    0.2969    0.0000 C   0  0  0  0  0  0  0  0  0  0  0  0
    0.6589   -0.9793    0.0000 C   0  0  0  0  0  0  0  0  0  0  0  0
    0.7866   -1.8557    0.0000 O   0  0  0  0  0  0  0  0  0  0  0  0
   -0.7984   -0.6239    0.0000 C   0  0  0  0  0  0  0  0  0  0  0  0
   -0.9107    0.8719    0.0000 C   0  0  0  0  0  0  0  0  0  0  0  0
    0.4772    1.4410    0.0000 O   0  0  0  0  0  0  0  0  0  0  0  0
   -2.2623    1.5226    0.0000 C   0  0  0  0  0  0  0  0  0  0  0  0
   -3.5015    0.6774    0.0000 C   0  0  0  0  0  0  0  0  0  0  0  0
   -3.3892   -0.8184    0.0000 C   0  0  0  0  0  0  0  0  0  0  0  0
   -2.0376   -1.4690    0.0000 C   0  0  0  0  0  0  0  0  0  0  0  0
   -1.9253   -2.9648    0.0000 O   0  0  0  0  0  0  0  0  0  0  0  0
   -3.1646   -3.8100    0.0000 C   0  0  0  0  0  0  0  0  0  0  0  0
   -4.8530    1.3280    0.0000 O   0  0  0  0  0  0  0  0  0  0  0  0
   -4.9654    2.8238    0.0000 C   0  0  0  0  0  0  0  0  0  0  0  0
   -2.3746    3.0184    0.0000 Cl  0  0  0  0  0  0  0  0  0  0  0  0
    1.6417   -2.2939    0.0000 O   0  0  0  0  0  0  0  0  0  0  0  0
    2.4869   -3.5332    0.0000 C   0  0  0  0  0  0  0  0  0  0  0  0
    3.0440    3.1590    0.0000 H   0  0  0  0  0  0  0  0  0  0  0  0
    0.9037    3.2752    0.0000 H   0  0  0  0  0  0  0  0  0  0  0  0
    2.3961    4.6335    0.0000 H   0  0  0  0  0  0  0  0  0  0  0  0
    0.9253    2.3175    0.0000 H   0  0  0  0  0  0  0  0  0  0  0  0
    3.4925    2.5514    0.0000 H   0  0  0  0  0  0  0  0  0  0  0  0
    4.9608    2.3778    0.0000 H   0  0  0  0  0  0  0  0  0  0  0  0
    4.6333   -2.0693    0.0000 H   0  0  0  0  0  0  0  0  0  0  0  0
   -4.6284   -1.6635    0.0000 H   0  0  0  0  0  0  0  0  0  0  0  0
   -2.3194   -5.0492    0.0000 H   0  0  0  0  0  0  0  0  0  0  0  0
   -4.0097   -2.5707    0.0000 H   0  0  0  0  0  0  0  0  0  0  0  0
   -4.4038   -4.6551    0.0000 H   0  0  0  0  0  0  0  0  0  0  0  0
   -6.4611    2.7115    0.0000 H   0  0  0  0  0  0  0  0  0  0  0  0
   -3.4696    2.9361    0.0000 H   0  0  0  0  0  0  0  0  0  0  0  0
   -5.0777    4.3196    0.0000 H   0  0  0  0  0  0  0  0  0  0  0  0
    1.2477   -4.3783    0.0000 H   0  0  0  0  0  0  0  0  0  0  0  0
    3.7261   -2.6880    0.0000 H   0  0  0  0  0  0  0  0  0  0  0  0
    3.3321   -4.7724    0.0000 H   0  0  0  0  0  0  0  0  0  0  0  0
  1  2  1  0
  1 25  1  0
  1 26  1  0
  1 27  1  0
  2  3  1  0
  2  8  1  0
  2 28  1  1
  3  4  1  0
  3 29  1  0
  3 30  1  0
  4  5  2  0
  4  6  1  0
  6  7  2  0
  6 31  1  0
  7 23  1  0
  8  7  1  0
  8  9  1  0
  8 13  1  1
  9 10  2  0
  9 11  1  0
 11 12  2  0
 11 17  1  0
 12 13  1  0
 12 14  1  0
 14 15  2  0
 14 22  1  0
 15 16  1  0
 15 20  1  0
 16 17  2  0
 16 32  1  0
 17 18  1  0
 18 19  1  0
 19 33  1  0
 19 34  1  0
 19 35  1  0
 20 21  1  0
 21 36  1  0
 21 37  1  0
 21 38  1  0
 23 24  1  0
 24 39  1  0
 24 40  1  0
 24 41  1  0
M  END
$$$$

     RDKit          2D

 33 36  0  0  0  0  0  0  0  0999 V2000
   -6.1826    0.1221    0.0000 C   0  0  0  0  0  0  0  0  0  0  0  0
   -5.3747    1.3859    0.0000 C   0  0  0  0  0  0  0  0  0  0  0  0
   -3.8762    1.3181    0.0000 C   0  0  0  0  0  0  0  0  0  0  0  0
   -3.1857   -0.0135    0.0000 C   0  0  0  0  0  0  0  0  0  0  0  0
   -3.9936   -1.2773    0.0000 C   0  0  0  0  0  0  0  0  0  0  0  0
   -5.4921   -1.2095    0.0000 C   0  0  0  0  0  0  0  0  0  0  0  0
   -1.6872   -0.0813    0.0000 C   0  0  0  0  0  0  0  0  0  0  0  0
   -0.9967   -1.4129    0.0000 C   0  0  0  0  0  0  0  0  0  0  0  0
    0.5018   -1.4807    0.0000 C   0  0  0  0  0  0  0  0  0  0  0  0
    1.1923   -2.8123    0.0000 O   0  0  0  0  0  0  0  0  0  0  0  0
    1.3097   -0.2169    0.0000 C   0  0  0  0  0  0  0  0  0  0  0  0
    0.6192    1.1147    0.0000 C   0  0  0  0  0  0  0  0  0  0  0  0
   -0.8793    1.1825    0.0000 O   0  0  0  0  0  0  0  0  0  0  0  0
    1.4271    2.3785    0.0000 C   0  0  0  0  0  0  0  0  0  0  0  0
    2.9256    2.3108    0.0000 C   0  0  0  0  0  0  0  0  0  0  0  0
    3.6161    0.9792    0.0000 C   0  0  0  0  0  0  0  0  0  0  0  0
    5.1146    0.9114    0.0000 C   0  0  0  0  0  0  0  0  0  0  0  0
    5.8051   -0.4202    0.0000 C   0  0  0  0  0  0  0  0  0  0  0  0
    4.9972   -1.6841    0.0000 C   0  0  0  0  0  0  0  0  0  0  0  0
    3.4987   -1.6163    0.0000 C   0  0  0  0  0  0  0  0  0  0  0  0
    2.8082   -0.2847    0.0000 C   0  0  0  0  0  0  0  0  0  0  0  0
   -7.6811    0.1899    0.0000 H   0  0  0  0  0  0  0  0  0  0  0  0
   -6.0652    2.7175    0.0000 H   0  0  0  0  0  0  0  0  0  0  0  0
   -3.0683    2.5819    0.0000 H   0  0  0  0  0  0  0  0  0  0  0  0
   -3.3031   -2.6089    0.0000 H   0  0  0  0  0  0  0  0  0  0  0  0
   -6.3000   -2.4733    0.0000 H   0  0  0  0  0  0  0  0  0  0  0  0
   -1.8046   -2.6767    0.0000 H   0  0  0  0  0  0  0  0  0  0  0  0
    0.7366    3.7102    0.0000 H   0  0  0  0  0  0  0  0  0  0  0  0
    3.7335    3.5746    0.0000 H   0  0  0  0  0  0  0  0  0  0  0  0
    5.9225    2.1752    0.0000 H   0  0  0  0  0  0  0  0  0  0  0  0
    7.3036   -0.4880    0.0000 H   0  0  0  0  0  0  0  0  0  0  0  0
    5.6877   -3.0157    0.0000 H   0  0  0  0  0  0  0  0  0  0  0  0
    2.6908   -2.8801    0.0000 H   0  0  0  0  0  0  0  0  0  0  0  0
  1  2  2  0
  1  6  1  0
  1 22  1  0
  2  3  1  0
  2 23  1  0
  3  4  2  0
  3 24  1  0
  4  5  1  0
  4  7  1  0
  5  6  2  0
  5 25  1  0
  6 26  1  0
  7  8  2  0
  7 13  1  0
  8  9  1  0
  8 27  1  0
  9 10  2  0
  9 11  1  0
 11 12  2  0
 11 21  1  0
 12 13  1  0
 12 14  1  0
 14 15  2  0
 14 28  1  0
 15 16  1  0
 15 29  1  0
 16 17  1  0
 16 21  2  0
 17 18  2  0
 17 30  1  0
 18 19  1  0
 18 31  1  0
 19 20  2  0
 19 32  1  0
 20 21  1  0
 20 33  1  0
M  END
$$$$

     RDKit          2D

 46 46  0  0  0  0  0  0  0  0999 V2000
    4.6153   -2.0898    0.0000 C   0  0  0  0  0  0  0  0  0  0  0  0
    3.2886   -1.3900    0.0000 C   0  0  0  0  0  0  0  0  0  0  0  0
    1.9618   -0.6901    0.0000 O   0  0  0  0  0  0  0  0  0  0  0  0
    0.6924   -1.4892    0.0000 P   0  0  0  0  0  0  0  0  0  0  0  0
   -0.6344   -0.7894    0.0000 S   0  0  0  0  0  0  0  0  0  0  0  0
    0.6351    0.0097    0.0000 N   0  0  0  0  0  0  0  0  0  0  0  0
   -0.6917    0.7095    0.0000 C   0  0  0  0  0  0  0  0  0  0  0  0
   -1.3915   -0.6173    0.0000 C   0  0  0  0  0  0  0  0  0  0  0  0
   -2.0184    1.4093    0.0000 C   0  0  0  0  0  0  0  0  0  0  0  0
   -0.5770   -2.2883    0.0000 O   0  0  0  0  0  0  0  0  0  0  0  0
   -1.9038   -1.5885    0.0000 C   0  0  0  0  0  0  0  0  0  0  0  0
   -3.1732   -2.3876    0.0000 C   0  0  0  0  0  0  0  0  0  0  0  0
   -4.5000   -1.6878    0.0000 C   0  0  0  0  0  0  0  0  0  0  0  0
   -4.5573   -0.1889    0.0000 C   0  0  0  0  0  0  0  0  0  0  0  0
   -3.2879    0.6102    0.0000 C   0  0  0  0  0  0  0  0  0  0  0  0
   -1.9611   -0.0896    0.0000 C   0  0  0  0  0  0  0  0  0  0  0  0
   -0.6917    0.7095    0.0000 C   0  0  0  0  0  0  0  0  0  0  0  0
   -0.7490    2.2084    0.0000 O   0  0  0  0  0  0  0  0  0  0  0  0
    0.6351    0.0097    0.0000 O   0  0  0  0  0  0  0  0  0  0  0  0
    1.9045    0.8088    0.0000 C   0  0  0  0  0  0  0  0  0  0  0  0
    1.1054    2.0782    0.0000 C   0  0  0  0  0  0  0  0  0  0  0  0
    3.1739    1.6079    0.0000 C   0  0  0  0  0  0  0  0  0  0  0  0
    3.9155   -3.4165    0.0000 H   0  0  0  0  0  0  0  0  0  0  0  0
    5.3151   -0.7630    0.0000 H   0  0  0  0  0  0  0  0  0  0  0  0
    5.9421   -2.7896    0.0000 H   0  0  0  0  0  0  0  0  0  0  0  0
    4.1449   -0.1584    0.0000 H   0  0  0  0  0  0  0  0  0  0  0  0
    2.5887   -2.7167    0.0000 H   0  0  0  0  0  0  0  0  0  0  0  0
    2.0601    0.4778    0.0000 H   0  0  0  0  0  0  0  0  0  0  0  0
    0.0081    2.0362    0.0000 H   0  0  0  0  0  0  0  0  0  0  0  0
   -2.7937   -0.0844    0.0000 H   0  0  0  0  0  0  0  0  0  0  0  0
   -0.5487   -1.8581    0.0000 H   0  0  0  0  0  0  0  0  0  0  0  0
   -2.3916   -1.7352    0.0000 H   0  0  0  0  0  0  0  0  0  0  0  0
   -1.4856    2.8115    0.0000 H   0  0  0  0  0  0  0  0  0  0  0  0
   -3.3528    0.7241    0.0000 H   0  0  0  0  0  0  0  0  0  0  0  0
   -3.2500    2.2656    0.0000 H   0  0  0  0  0  0  0  0  0  0  0  0
   -3.1159   -3.8865    0.0000 H   0  0  0  0  0  0  0  0  0  0  0  0
   -5.7694   -2.4869    0.0000 H   0  0  0  0  0  0  0  0  0  0  0  0
   -5.8840    0.5109    0.0000 H   0  0  0  0  0  0  0  0  0  0  0  0
   -3.5275    2.0910    0.0000 H   0  0  0  0  0  0  0  0  0  0  0  0
    2.9870   -0.2296    0.0000 H   0  0  0  0  0  0  0  0  0  0  0  0
    2.2680    3.0261    0.0000 H   0  0  0  0  0  0  0  0  0  0  0  0
   -0.3928    2.1519    0.0000 H   0  0  0  0  0  0  0  0  0  0  0  0
    0.3063    3.3476    0.0000 H   0  0  0  0  0  0  0  0  0  0  0  0
    2.5355    2.9652    0.0000 H   0  0  0  0  0  0  0  0  0  0  0  0
    4.1218    0.4453    0.0000 H   0  0  0  0  0  0  0  0  0  0  0  0
    4.4434    2.4069    0.0000 H   0  0  0  0  0  0  0  0  0  0  0  0
  1  2  1  0
  1 23  1  0
  1 24  1  0
  1 25  1  0
  2  3  1  0
  2 26  1  0
  2 27  1  0
  3  4  1  0
  4  5  2  0
  4  6  1  0
  4 10  1  0
  6  7  1  0
  6 28  1  0
  7  8  1  0
  7  9  1  0
  7 29  1  0
  8 30  1  0
  8 31  1  0
  8 32  1  0
  9 33  1  0
  9 34  1  0
  9 35  1  0
 10 11  1  0
 11 12  2  0
 11 16  1  0
 12 13  1  0
 12 36  1  0
 13 14  2  0
 13 37  1  0
 14 15  1  0
 14 38  1  0
 15 16  2  0
 15 39  1  0
 16 17  1  0
 17 18  2  0
 17 19  1  0
 19 20  1  0
 20 21  1  0
 20 22  1  0
 20 40  1  0
 21 41  1  0
 21 42  1  0
 21 43  1  0
 22 44  1  0
 22 45  1  0
 22 46  1  0
M  END
$$$$

     RDKit          2D

 26 26  0  0  0  0  0  0  0  0999 V2000
    4.0234    1.1602    0.0000 C   0  0  0  0  0  0  0  0  0  0  0  0
    2.5541    1.4624    0.0000 O   0  0  0  0  0  0  0  0  0  0  0  0
    1.5578    0.3410    0.0000 P   0  0  0  0  0  0  0  0  0  0  0  0
    1.0848    1.7645    0.0000 O   0  0  0  0  0  0  0  0  0  0  0  0
    3.0271    0.0389    0.0000 O   0  0  0  0  0  0  0  0  0  0  0  0
    3.5000   -1.3846    0.0000 C   0  0  0  0  0  0  0  0  0  0  0  0
    0.5615   -0.7803    0.0000 O   0  0  0  0  0  0  0  0  0  0  0  0
   -0.9077   -0.4782    0.0000 C   0  0  0  0  0  0  0  0  0  0  0  0
   -1.9040   -1.5995    0.0000 C   0  0  0  0  0  0  0  0  0  0  0  0
   -3.3733   -1.2974    0.0000 C   0  0  0  0  0  0  0  0  0  0  0  0
   -3.8462    0.1261    0.0000 C   0  0  0  0  0  0  0  0  0  0  0  0
   -2.8500    1.2474    0.0000 C   0  0  0  0  0  0  0  0  0  0  0  0
   -1.3807    0.9453    0.0000 C   0  0  0  0  0  0  0  0  0  0  0  0
   -5.3155    0.4282    0.0000 N   0  0  0  0  0  0  0  0  0  0  0  0
   -6.3118   -0.6931    0.0000 O   0  0  0  0  0  0  0  0  0  0  0  0
   -5.7885    1.8517    0.0000 O   0  0  0  0  0  0  0  0  0  0  0  0
    4.3255    2.6295    0.0000 H   0  0  0  0  0  0  0  0  0  0  0  0
    4.0857   -0.3385    0.0000 H   0  0  0  0  0  0  0  0  0  0  0  0
    5.4926    0.8581    0.0000 H   0  0  0  0  0  0  0  0  0  0  0  0
    4.9235   -0.9116    0.0000 H   0  0  0  0  0  0  0  0  0  0  0  0
    2.0766   -1.8576    0.0000 H   0  0  0  0  0  0  0  0  0  0  0  0
    3.9730   -2.8081    0.0000 H   0  0  0  0  0  0  0  0  0  0  0  0
   -1.4310   -3.0230    0.0000 H   0  0  0  0  0  0  0  0  0  0  0  0
   -4.3696   -2.4188    0.0000 H   0  0  0  0  0  0  0  0  0  0  0  0
   -3.3229    2.6709    0.0000 H   0  0  0  0  0  0  0  0  0  0  0  0
   -0.3844    2.0666    0.0000 H   0  0  0  0  0  0  0  0  0  0  0  0
  1  2  1  0
  1 17  1  0
  1 18  1  0
  1 19  1  0
  2  3  1  0
  3  4  2  0
  3  5  1  0
  3  7  1  0
  5  6  1  0
  6 20  1  0
  6 21  1  0
  6 22  1  0
  7  8  1  0
  8  9  2  0
  8 13  1  0
  9 10  1  0
  9 23  1  0
 10 11  2  0
 10 24  1  0
 11 12  1  0
 11 14  1  0
 12 13  2  0
 12 25  1  0
 13 26  1  0
 14 15  2  0
 14 16  1  0
M  CHG  2  14   1  16  -1
M  END
$$$$

     RDKit          2D

 30 30  0  0  0  0  0  0  0  0999 V2000
    3.9673    1.0985    0.0000 C   0  0  0  0  0  0  0  0  0  0  0  0
    3.4510   -0.3098    0.0000 C   0  0  0  0  0  0  0  0  0  0  0  0
    4.8594   -0.8261    0.0000 C   0  0  0  0  0  0  0  0  0  0  0  0
    2.0427    0.2065    0.0000 C   0  0  0  0  0  0  0  0  0  0  0  0
    1.6074    1.6419    0.0000 O   0  0  0  0  0  0  0  0  0  0  0  0
    0.8914   -0.7551    0.0000 N   0  0  0  0  0  0  0  0  0  0  0  0
   -0.5170   -0.2388    0.0000 C   0  0  0  0  0  0  0  0  0  0  0  0
   -1.6682   -1.2003    0.0000 C   0  0  0  0  0  0  0  0  0  0  0  0
   -3.0766   -0.6840    0.0000 C   0  0  0  0  0  0  0  0  0  0  0  0
   -3.3337    0.7938    0.0000 C   0  0  0  0  0  0  0  0  0  0  0  0
   -2.1824    1.7553    0.0000 C   0  0  0  0  0  0  0  0  0  0  0  0
   -0.7740    1.2390    0.0000 C   0  0  0  0  0  0  0  0  0  0  0  0
   -4.7420    1.3101    0.0000 N   0  0  0  0  0  0  0  0  0  0  0  0
   -5.8933    0.3485    0.0000 O   0  0  0  0  0  0  0  0  0  0  0  0
   -4.9991    2.7879    0.0000 O   0  0  0  0  0  0  0  0  0  0  0  0
   -4.2279   -1.6456    0.0000 C   0  0  0  0  0  0  0  0  0  0  0  0
   -5.3792   -2.6071    0.0000 F   0  0  0  0  0  0  0  0  0  0  0  0
   -5.1894   -0.4943    0.0000 F   0  0  0  0  0  0  0  0  0  0  0  0
   -3.2664   -2.7969    0.0000 F   0  0  0  0  0  0  0  0  0  0  0  0
    2.6324    1.7826    0.0000 H   0  0  0  0  0  0  0  0  0  0  0  0
    4.8299    0.8973    0.0000 H   0  0  0  0  0  0  0  0  0  0  0  0
    4.4836    2.5069    0.0000 H   0  0  0  0  0  0  0  0  0  0  0  0
    2.9347   -1.7182    0.0000 H   0  0  0  0  0  0  0  0  0  0  0  0
    5.2633   -0.0379    0.0000 H   0  0  0  0  0  0  0  0  0  0  0  0
    4.3431   -2.2345    0.0000 H   0  0  0  0  0  0  0  0  0  0  0  0
    6.2677   -1.3424    0.0000 H   0  0  0  0  0  0  0  0  0  0  0  0
    1.1485   -2.2329    0.0000 H   0  0  0  0  0  0  0  0  0  0  0  0
   -1.4112   -2.6781    0.0000 H   0  0  0  0  0  0  0  0  0  0  0  0
   -2.4394    3.2331    0.0000 H   0  0  0  0  0  0  0  0  0  0  0  0
    0.3773    2.2005    0.0000 H   0  0  0  0  0  0  0  0  0  0  0  0
  1  2  1  0
  1 20  1  0
  1 21  1  0
  1 22  1  0
  2  3  1  0
  2  4  1  0
  2 23  1  0
  3 24  1  0
  3 25  1  0
  3 26  1  0
  4  5  2  0
  4  6  1  0
  6  7  1  0
  6 27  1  0
  7  8  2  0
  7 12  1  0
  8  9  1  0
  8 28  1  0
  9 10  2  0
  9 16  1  0
 10 11  1  0
 10 13  1  0
 11 12  2  0
 11 29  1  0
 12 30  1  0
 13 14  2  0
 13 15  1  0
 16 17  1  0
 16 18  1  0
 16 19  1  0
M  CHG  2  13   1  15  -1
M  END
$$$$

     RDKit          2D

108111  0  0  0  0  0  0  0  0999 V2000
   -2.8236    4.3961    0.0000 C   0  0  0  0  0  0  0  0  0  0  0  0
   -1.5614    5.2066    0.0000 C   0  0  0  0  0  0  0  0  0  0  0  0
   -1.6322    6.7049    0.0000 C   0  0  0  0  0  0  0  0  0  0  0  0
   -0.3701    7.5154    0.0000 C   0  0  0  0  0  0  0  0  0  0  0  0
    0.9629    6.8276    0.0000 C   0  0  0  0  0  0  0  0  0  0  0  0
    1.0338    5.3293    0.0000 C   0  0  0  0  0  0  0  0  0  0  0  0
   -0.2284    4.5188    0.0000 C   0  0  0  0  0  0  0  0  0  0  0  0
   -0.1576    3.0205    0.0000 C   0  0  0  0  0  0  0  0  0  0  0  0
   -0.0868    1.5221    0.0000 N   0  0  0  0  0  0  0  0  0  0  0  0
   -1.3490    0.7116    0.0000 C   0  0  0  0  0  0  0  0  0  0  0  0
   -2.6820    1.3995    0.0000 O   0  0  0  0  0  0  0  0  0  0  0  0
   -1.2782   -0.7867    0.0000 N   0  0  0  0  0  0  0  0  0  0  0  0
    0.0548   -1.4745    0.0000 C   0  0  0  0  0  0  0  0  0  0  0  0
    0.1256   -2.9729    0.0000 O   0  0  0  0  0  0  0  0  0  0  0  0
    1.3170   -0.6640    0.0000 N   0  0  0  0  0  0  0  0  0  0  0  0
    1.2462    0.8343    0.0000 C   0  0  0  0  0  0  0  0  0  0  0  0
    2.5084    1.6448    0.0000 O   0  0  0  0  0  0  0  0  0  0  0  0
    2.6500   -1.3519    0.0000 C   0  0  0  0  0  0  0  0  0  0  0  0
    3.9830   -2.0397    0.0000 C   0  0  0  0  0  0  0  0  0  0  0  0
    4.0538   -3.5381    0.0000 C   0  0  0  0  0  0  0  0  0  0  0  0
    5.3868   -4.2259    0.0000 C   0  0  0  0  0  0  0  0  0  0  0  0
    6.6490   -3.4154    0.0000 C   0  0  0  0  0  0  0  0  0  0  0  0
    6.5782   -1.9171    0.0000 C   0  0  0  0  0  0  0  0  0  0  0  0
    5.2452   -1.2292    0.0000 C   0  0  0  0  0  0  0  0  0  0  0  0
    5.1744    0.2691    0.0000 C   0  0  0  0  0  0  0  0  0  0  0  0
    7.9820   -4.1033    0.0000 C   0  0  0  0  0  0  0  0  0  0  0  0
    8.6698   -2.7703    0.0000 C   0  0  0  0  0  0  0  0  0  0  0  0
    7.2941   -5.4362    0.0000 C   0  0  0  0  0  0  0  0  0  0  0  0
    9.3150   -4.7911    0.0000 C   0  0  0  0  0  0  0  0  0  0  0  0
    5.4576   -5.7242    0.0000 O   0  0  0  0  0  0  0  0  0  0  0  0
    2.7916   -4.3485    0.0000 C   0  0  0  0  0  0  0  0  0  0  0  0
   -2.5404   -1.5972    0.0000 C   0  0  0  0  0  0  0  0  0  0  0  0
   -3.8026   -2.4077    0.0000 C   0  0  0  0  0  0  0  0  0  0  0  0
   -5.1356   -1.7198    0.0000 C   0  0  0  0  0  0  0  0  0  0  0  0
   -6.3977   -2.5303    0.0000 C   0  0  0  0  0  0  0  0  0  0  0  0
   -6.3269   -4.0286    0.0000 C   0  0  0  0  0  0  0  0  0  0  0  0
   -4.9939   -4.7165    0.0000 C   0  0  0  0  0  0  0  0  0  0  0  0
   -3.7318   -3.9060    0.0000 C   0  0  0  0  0  0  0  0  0  0  0  0
   -2.3988   -4.5938    0.0000 C   0  0  0  0  0  0  0  0  0  0  0  0
   -7.5891   -4.8391    0.0000 C   0  0  0  0  0  0  0  0  0  0  0  0
   -6.7786   -6.1013    0.0000 C   0  0  0  0  0  0  0  0  0  0  0  0
   -8.3996   -3.5769    0.0000 C   0  0  0  0  0  0  0  0  0  0  0  0
   -8.8513   -5.6496    0.0000 C   0  0  0  0  0  0  0  0  0  0  0  0
   -7.7307   -1.8425    0.0000 O   0  0  0  0  0  0  0  0  0  0  0  0
   -5.2064   -0.2215    0.0000 C   0  0  0  0  0  0  0  0  0  0  0  0
    2.3667    4.6414    0.0000 C   0  0  0  0  0  0  0  0  0  0  0  0
    2.2251    7.6381    0.0000 O   0  0  0  0  0  0  0  0  0  0  0  0
   -0.4409    9.0138    0.0000 C   0  0  0  0  0  0  0  0  0  0  0  0
    1.0575    9.0846    0.0000 C   0  0  0  0  0  0  0  0  0  0  0  0
   -1.9392    8.9430    0.0000 C   0  0  0  0  0  0  0  0  0  0  0  0
   -0.5117   10.5121    0.0000 C   0  0  0  0  0  0  0  0  0  0  0  0
   -2.2966    3.3014    0.0000 H   0  0  0  0  0  0  0  0  0  0  0  0
   -3.6341    5.6583    0.0000 H   0  0  0  0  0  0  0  0  0  0  0  0
   -4.0858    3.5856    0.0000 H   0  0  0  0  0  0  0  0  0  0  0  0
   -2.9652    7.3928    0.0000 H   0  0  0  0  0  0  0  0  0  0  0  0
   -1.3552    2.8156    0.0000 H   0  0  0  0  0  0  0  0  0  0  0  0
    1.3382    2.9081    0.0000 H   0  0  0  0  0  0  0  0  0  0  0  0
    3.0714   -0.2123    0.0000 H   0  0  0  0  0  0  0  0  0  0  0  0
    1.8048   -2.5911    0.0000 H   0  0  0  0  0  0  0  0  0  0  0  0
    7.3235   -1.4385    0.0000 H   0  0  0  0  0  0  0  0  0  0  0  0
    6.6727    0.3399    0.0000 H   0  0  0  0  0  0  0  0  0  0  0  0
    3.9628    0.3601    0.0000 H   0  0  0  0  0  0  0  0  0  0  0  0
    5.1035    1.7674    0.0000 H   0  0  0  0  0  0  0  0  0  0  0  0
   10.0767   -3.2905    0.0000 H   0  0  0  0  0  0  0  0  0  0  0  0
    8.0044   -2.1857    0.0000 H   0  0  0  0  0  0  0  0  0  0  0  0
    9.3576   -1.4373    0.0000 H   0  0  0  0  0  0  0  0  0  0  0  0
    8.1975   -6.0524    0.0000 H   0  0  0  0  0  0  0  0  0  0  0  0
    6.2299   -5.1848    0.0000 H   0  0  0  0  0  0  0  0  0  0  0  0
    6.7739   -6.8431    0.0000 H   0  0  0  0  0  0  0  0  0  0  0  0
    8.9357   -5.8167    0.0000 H   0  0  0  0  0  0  0  0  0  0  0  0
   10.1602   -3.5519    0.0000 H   0  0  0  0  0  0  0  0  0  0  0  0
   10.6480   -5.4789    0.0000 H   0  0  0  0  0  0  0  0  0  0  0  0
    6.6968   -6.5694    0.0000 H   0  0  0  0  0  0  0  0  0  0  0  0
    3.6021   -5.6107    0.0000 H   0  0  0  0  0  0  0  0  0  0  0  0
    1.8333   -3.1946    0.0000 H   0  0  0  0  0  0  0  0  0  0  0  0
    1.5294   -5.1590    0.0000 H   0  0  0  0  0  0  0  0  0  0  0  0
   -1.5821   -2.7512    0.0000 H   0  0  0  0  0  0  0  0  0  0  0  0
   -3.1910   -0.2456    0.0000 H   0  0  0  0  0  0  0  0  0  0  0  0
   -4.9231   -6.2148    0.0000 H   0  0  0  0  0  0  0  0  0  0  0  0
   -3.0866   -5.9268    0.0000 H   0  0  0  0  0  0  0  0  0  0  0  0
   -1.5536   -3.3546    0.0000 H   0  0  0  0  0  0  0  0  0  0  0  0
   -1.0658   -5.2817    0.0000 H   0  0  0  0  0  0  0  0  0  0  0  0
   -7.9326   -7.0596    0.0000 H   0  0  0  0  0  0  0  0  0  0  0  0
   -5.3578   -5.6203    0.0000 H   0  0  0  0  0  0  0  0  0  0  0  0
   -5.9681   -7.3635    0.0000 H   0  0  0  0  0  0  0  0  0  0  0  0
   -9.7512   -4.2275    0.0000 H   0  0  0  0  0  0  0  0  0  0  0  0
   -7.3710   -2.4851    0.0000 H   0  0  0  0  0  0  0  0  0  0  0  0
   -9.3579   -2.4230    0.0000 H   0  0  0  0  0  0  0  0  0  0  0  0
   -9.8096   -4.4956    0.0000 H   0  0  0  0  0  0  0  0  0  0  0  0
   -8.2007   -7.0012    0.0000 H   0  0  0  0  0  0  0  0  0  0  0  0
  -10.1135   -6.4601    0.0000 H   0  0  0  0  0  0  0  0  0  0  0  0
   -9.0823   -2.4931    0.0000 H   0  0  0  0  0  0  0  0  0  0  0  0
   -6.7047   -0.2923    0.0000 H   0  0  0  0  0  0  0  0  0  0  0  0
   -3.7278    0.0314    0.0000 H   0  0  0  0  0  0  0  0  0  0  0  0
   -5.2772    1.2768    0.0000 H   0  0  0  0  0  0  0  0  0  0  0  0
    3.0546    5.9744    0.0000 H   0  0  0  0  0  0  0  0  0  0  0  0
    1.8465    3.2345    0.0000 H   0  0  0  0  0  0  0  0  0  0  0  0
    3.6997    3.9536    0.0000 H   0  0  0  0  0  0  0  0  0  0  0  0
    3.5581    6.9502    0.0000 H   0  0  0  0  0  0  0  0  0  0  0  0
    1.1698   10.5804    0.0000 H   0  0  0  0  0  0  0  0  0  0  0  0
    1.4887    7.6479    0.0000 H   0  0  0  0  0  0  0  0  0  0  0  0
    2.5558    9.1554    0.0000 H   0  0  0  0  0  0  0  0  0  0  0  0
   -2.1921   10.4215    0.0000 H   0  0  0  0  0  0  0  0  0  0  0  0
   -2.2330    7.4720    0.0000 H   0  0  0  0  0  0  0  0  0  0  0  0
   -3.4375    8.8721    0.0000 H   0  0  0  0  0  0  0  0  0  0  0  0
   -2.0075   10.6244    0.0000 H   0  0  0  0  0  0  0  0  0  0  0  0
    0.9669   10.7650    0.0000 H   0  0  0  0  0  0  0  0  0  0  0  0
   -0.5825   12.0104    0.0000 H   0  0  0  0  0  0  0  0  0  0  0  0
  1  2  1  0
  1 52  1  0
  1 53  1  0
  1 54  1  0
  2  3  2  0
  2  7  1  0
  3  4  1  0
  3 55  1  0
  4  5  2  0
  4 48  1  0
  5  6  1  0
  5 47  1  0
  6  7  2  0
  6 46  1  0
  7  8  1  0
  8  9  1  0
  8 56  1  0
  8 57  1  0
  9 10  1  0
  9 16  1  0
 10 11  2  0
 10 12  1  0
 12 13  1  0
 12 32  1  0
 13 14  2  0
 13 15  1  0
 15 16  1  0
 15 18  1  0
 16 17  2  0
 18 19  1  0
 18 58  1  0
 18 59  1  0
 19 20  2  0
 19 24  1  0
 20 21  1  0
 20 31  1  0
 21 22  2  0
 21 30  1  0
 22 23  1  0
 22 26  1  0
 23 24  2  0
 23 60  1  0
 24 25  1  0
 25 61  1  0
 25 62  1  0
 25 63  1  0
 26 27  1  0
 26 28  1  0
 26 29  1  0
 27 64  1  0
 27 65  1  0
 27 66  1  0
 28 67  1  0
 28 68  1  0
 28 69  1  0
 29 70  1  0
 29 71  1  0
 29 72  1  0
 30 73  1  0
 31 74  1  0
 31 75  1  0
 31 76  1  0
 32 33  1  0
 32 77  1  0
 32 78  1  0
 33 34  2  0
 33 38  1  0
 34 35  1  0
 34 45  1  0
 35 36  2  0
 35 44  1  0
 36 37  1  0
 36 40  1  0
 37 38  2  0
 37 79  1  0
 38 39  1  0
 39 80  1  0
 39 81  1  0
 39 82  1  0
 40 41  1  0
 40 42  1  0
 40 43  1  0
 41 83  1  0
 41 84  1  0
 41 85  1  0
 42 86  1  0
 42 87  1  0
 42 88  1  0
 43 89  1  0
 43 90  1  0
 43 91  1  0
 44 92  1  0
 45 93  1  0
 45 94  1  0
 45 95  1  0
 46 96  1  0
 46 97  1  0
 46 98  1  0
 47 99  1  0
 48 49  1  0
 48 50  1  0
 48 51  1  0
 49100  1  0
 49101  1  0
 49102  1  0
 50103  1  0
 50104  1  0
 50105  1  0
 51106  1  0
 51107  1  0
 51108  1  0
M  END
$$$$

     RDKit          2D

 54 55  0  0  0  0  0  0  0  0999 V2000
    8.5221    1.4644    0.0000 C   0  0  0  0  0  0  0  0  0  0  0  0
    7.1086    0.9625    0.0000 C   0  0  0  0  0  0  0  0  0  0  0  0
    5.6950    0.4606    0.0000 C   0  0  0  0  0  0  0  0  0  0  0  0
    4.2815   -0.0413    0.0000 C   0  0  0  0  0  0  0  0  0  0  0  0
    2.8680   -0.5432    0.0000 C   0  0  0  0  0  0  0  0  0  0  0  0
    3.3699   -1.9568    0.0000 C   0  0  0  0  0  0  0  0  0  0  0  0
    3.8718   -3.3703    0.0000 C   0  0  0  0  0  0  0  0  0  0  0  0
    1.4544   -1.0451    0.0000 C   0  0  0  0  0  0  0  0  0  0  0  0
    0.0409   -1.5470    0.0000 O   0  0  0  0  0  0  0  0  0  0  0  0
   -1.1005   -0.5738    0.0000 C   0  0  0  0  0  0  0  0  0  0  0  0
   -0.8054    0.3650    0.0000 O   0  0  0  0  0  0  0  0  0  0  0  0
   -2.5141   -1.0757    0.0000 C   0  0  0  0  0  0  0  0  0  0  0  0
   -3.6555   -0.1025    0.0000 C   0  0  0  0  0  0  0  0  0  0  0  0
   -3.3834    1.3726    0.0000 C   0  0  0  0  0  0  0  0  0  0  0  0
   -1.9699    1.8745    0.0000 C   0  0  0  0  0  0  0  0  0  0  0  0
   -1.6978    3.3496    0.0000 C   0  0  0  0  0  0  0  0  0  0  0  0
   -2.8392    4.3228    0.0000 C   0  0  0  0  0  0  0  0  0  0  0  0
   -4.2527    3.8209    0.0000 C   0  0  0  0  0  0  0  0  0  0  0  0
   -4.5248    2.3458    0.0000 C   0  0  0  0  0  0  0  0  0  0  0  0
   -5.0691   -0.6044    0.0000 C   0  0  0  0  0  0  0  0  0  0  0  0
   -6.2105    0.3688    0.0000 C   0  0  0  0  0  0  0  0  0  0  0  0
   -7.6240   -0.1331    0.0000 C   0  0  0  0  0  0  0  0  0  0  0  0
   -7.8961   -1.6082    0.0000 C   0  0  0  0  0  0  0  0  0  0  0  0
   -6.7547   -2.5814    0.0000 C   0  0  0  0  0  0  0  0  0  0  0  0
   -5.3412   -2.0795    0.0000 C   0  0  0  0  0  0  0  0  0  0  0  0
   -2.7862   -2.5509    0.0000 C   0  0  0  0  0  0  0  0  0  0  0  0
   -3.0583   -4.0260    0.0000 N   0  0  0  0  0  0  0  0  0  0  0  0
    8.0202    2.8779    0.0000 H   0  0  0  0  0  0  0  0  0  0  0  0
    9.0240    0.0508    0.0000 H   0  0  0  0  0  0  0  0  0  0  0  0
    9.9357    1.9663    0.0000 H   0  0  0  0  0  0  0  0  0  0  0  0
    7.6105   -0.4511    0.0000 H   0  0  0  0  0  0  0  0  0  0  0  0
    6.6067    2.3760    0.0000 H   0  0  0  0  0  0  0  0  0  0  0  0
    5.1931    1.8741    0.0000 H   0  0  0  0  0  0  0  0  0  0  0  0
    6.1969   -0.9530    0.0000 H   0  0  0  0  0  0  0  0  0  0  0  0
    4.6774   -0.8337    0.0000 H   0  0  0  0  0  0  0  0  0  0  0  0
    3.7796    1.3722    0.0000 H   0  0  0  0  0  0  0  0  0  0  0  0
    2.3661    0.8703    0.0000 H   0  0  0  0  0  0  0  0  0  0  0  0
    4.2345   -1.7644    0.0000 H   0  0  0  0  0  0  0  0  0  0  0  0
    2.5775   -2.3527    0.0000 H   0  0  0  0  0  0  0  0  0  0  0  0
    2.4582   -3.8722    0.0000 H   0  0  0  0  0  0  0  0  0  0  0  0
    5.2853   -2.8684    0.0000 H   0  0  0  0  0  0  0  0  0  0  0  0
    4.3737   -4.7839    0.0000 H   0  0  0  0  0  0  0  0  0  0  0  0
    1.6468   -1.9097    0.0000 H   0  0  0  0  0  0  0  0  0  0  0  0
    0.9525    0.3684    0.0000 H   0  0  0  0  0  0  0  0  0  0  0  0
   -1.1487    1.3320    0.0000 H   0  0  0  0  0  0  0  0  0  0  0  0
   -0.2842    3.8515    0.0000 H   0  0  0  0  0  0  0  0  0  0  0  0
   -2.5671    5.7979    0.0000 H   0  0  0  0  0  0  0  0  0  0  0  0
   -5.3942    4.7941    0.0000 H   0  0  0  0  0  0  0  0  0  0  0  0
   -5.8426    2.0525    0.0000 H   0  0  0  0  0  0  0  0  0  0  0  0
   -6.1292    1.7163    0.0000 H   0  0  0  0  0  0  0  0  0  0  0  0
   -8.7655    0.8401    0.0000 H   0  0  0  0  0  0  0  0  0  0  0  0
   -9.3097   -2.1101    0.0000 H   0  0  0  0  0  0  0  0  0  0  0  0
   -7.0268   -4.0566    0.0000 H   0  0  0  0  0  0  0  0  0  0  0  0
   -4.1997   -3.0528    0.0000 H   0  0  0  0  0  0  0  0  0  0  0  0
  1  2  1  0
  1 28  1  0
  1 29  1  0
  1 30  1  0
  2  3  1  0
  2 31  1  0
  2 32  1  0
  3  4  1  0
  3 33  1  0
  3 34  1  0
  4  5  1  0
  4 35  1  0
  4 36  1  0
  5  6  1  0
  5  8  1  0
  5 37  1  6
  6  7  1  0
  6 38  1  0
  6 39  1  0
  7 40  1  0
  7 41  1  0
  7 42  1  0
  8  9  1  0
  8 43  1  0
  8 44  1  0
  9 10  1  0
 10 11  2  0
 10 12  1  0
 12 13  2  0
 12 26  1  0
 13 14  1  0
 13 20  1  0
 14 15  2  0
 14 19  1  0
 15 16  1  0
 15 45  1  0
 16 17  2  0
 16 46  1  0
 17 18  1  0
 17 47  1  0
 18 19  2  0
 18 48  1  0
 19 49  1  0
 20 21  2  0
 20 25  1  0
 21 22  1  0
 21 50  1  0
 22 23  2  0
 22 51  1  0
 23 24  1  0
 23 52  1  0
 24 25  2  0
 24 53  1  0
 25 54  1  0
 26 27  3  0
M  END
$$$$

     RDKit          2D

 21 21  0  0  0  0  0  0  0  0999 V2000
   -3.8697    0.4741    0.0000 C   0  0  0  0  0  0  0  0  0  0  0  0
   -2.6967   -0.4609    0.0000 C   0  0  0  0  0  0  0  0  0  0  0  0
   -1.5238   -1.3959    0.0000 O   0  0  0  0  0  0  0  0  0  0  0  0
   -0.1276   -0.8476    0.0000 C   0  0  0  0  0  0  0  0  0  0  0  0
    0.0957    0.6357    0.0000 C   0  0  0  0  0  0  0  0  0  0  0  0
    1.4919    1.1840    0.0000 C   0  0  0  0  0  0  0  0  0  0  0  0
    2.6648    0.2490    0.0000 C   0  0  0  0  0  0  0  0  0  0  0  0
    2.4416   -1.2343    0.0000 C   0  0  0  0  0  0  0  0  0  0  0  0
    1.0454   -1.7826    0.0000 C   0  0  0  0  0  0  0  0  0  0  0  0
    4.0610    0.7973    0.0000 N   0  0  0  0  0  0  0  0  0  0  0  0
   -2.9347    1.6470    0.0000 H   0  0  0  0  0  0  0  0  0  0  0  0
   -4.8046   -0.6988    0.0000 H   0  0  0  0  0  0  0  0  0  0  0  0
   -5.0426    1.4091    0.0000 H   0  0  0  0  0  0  0  0  0  0  0  0
   -3.6317   -1.6338    0.0000 H   0  0  0  0  0  0  0  0  0  0  0  0
   -1.7617    0.7120    0.0000 H   0  0  0  0  0  0  0  0  0  0  0  0
   -1.0773    1.5707    0.0000 H   0  0  0  0  0  0  0  0  0  0  0  0
    1.7151    2.6673    0.0000 H   0  0  0  0  0  0  0  0  0  0  0  0
    3.6145   -2.1693    0.0000 H   0  0  0  0  0  0  0  0  0  0  0  0
    0.8221   -3.2659    0.0000 H   0  0  0  0  0  0  0  0  0  0  0  0
    5.2340   -0.1377    0.0000 H   0  0  0  0  0  0  0  0  0  0  0  0
    4.2843    2.2806    0.0000 H   0  0  0  0  0  0  0  0  0  0  0  0
  1  2  1  0
  1 11  1  0
  1 12  1  0
  1 13  1  0
  2  3  1  0
  2 14  1  0
  2 15  1  0
  3  4  1  0
  4  5  2  0
  4  9  1  0
  5  6  1  0
  5 16  1  0
  6  7  2  0
  6 17  1  0
  7  8  1  0
  7 10  1  0
  8  9  2  0
  8 18  1  0
  9 19  1  0
 10 20  1  0
 10 21  1  0
M  END
$$$$

     RDKit          2D

 25 26  0  0  0  0  0  0  0  0999 V2000
    3.3410   -1.2234    0.0000 C   0  0  0  0  0  0  0  0  0  0  0  0
    1.9852   -1.8651    0.0000 C   0  0  0  0  0  0  0  0  0  0  0  0
    0.7515   -1.0119    0.0000 C   0  0  0  0  0  0  0  0  0  0  0  0
    0.8736    0.4831    0.0000 C   0  0  0  0  0  0  0  0  0  0  0  0
    2.2294    1.1249    0.0000 C   0  0  0  0  0  0  0  0  0  0  0  0
    3.4631    0.2717    0.0000 C   0  0  0  0  0  0  0  0  0  0  0  0
    4.8188    0.9134    0.0000 N   0  0  0  0  0  0  0  0  0  0  0  0
   -0.6043   -1.6537    0.0000 O   0  0  0  0  0  0  0  0  0  0  0  0
   -1.8379   -0.8004    0.0000 C   0  0  0  0  0  0  0  0  0  0  0  0
   -1.7159    0.6946    0.0000 C   0  0  0  0  0  0  0  0  0  0  0  0
   -2.9495    1.5478    0.0000 C   0  0  0  0  0  0  0  0  0  0  0  0
   -4.3053    0.9060    0.0000 C   0  0  0  0  0  0  0  0  0  0  0  0
   -4.4274   -0.5890    0.0000 C   0  0  0  0  0  0  0  0  0  0  0  0
   -3.1937   -1.4422    0.0000 C   0  0  0  0  0  0  0  0  0  0  0  0
   -5.5390    1.7593    0.0000 Cl  0  0  0  0  0  0  0  0  0  0  0  0
    4.5747   -2.0766    0.0000 H   0  0  0  0  0  0  0  0  0  0  0  0
    1.8631   -3.3602    0.0000 H   0  0  0  0  0  0  0  0  0  0  0  0
    0.1385    1.1374    0.0000 H   0  0  0  0  0  0  0  0  0  0  0  0
    2.3515    2.6199    0.0000 H   0  0  0  0  0  0  0  0  0  0  0  0
    6.0525    0.0602    0.0000 H   0  0  0  0  0  0  0  0  0  0  0  0
    4.9409    2.4085    0.0000 H   0  0  0  0  0  0  0  0  0  0  0  0
   -0.8843    1.2209    0.0000 H   0  0  0  0  0  0  0  0  0  0  0  0
   -2.8275    3.0428    0.0000 H   0  0  0  0  0  0  0  0  0  0  0  0
   -5.7832   -1.2308    0.0000 H   0  0  0  0  0  0  0  0  0  0  0  0
   -3.3158   -2.9373    0.0000 H   0  0  0  0  0  0  0  0  0  0  0  0
  1  2  2  0
  1  6  1  0
  1 16  1  0
  2  3  1  0
  2 17  1  0
  3  4  2  0
  3  8  1  0
  4  5  1  0
  4 18  1  0
  5  6  2  0
  5 19  1  0
  6  7  1  0
  7 20  1  0
  7 21  1  0
  8  9  1  0
  9 10  2  0
  9 14  1  0
 10 11  1  0
 10 22  1  0
 11 12  2  0
 11 23  1  0
 12 13  1  0
 12 15  1  0
 13 14  2  0
 13 24  1  0
 14 25  1  0
M  END
$$$$

     RDKit          2D

 35 34  0  0  0  0  0  0  0  0999 V2000
   -2.3068   -2.5829    0.0000 C   0  0  0  0  0  0  0  0  0  0  0  0
   -1.9534   -1.1251    0.0000 C   0  0  0  0  0  0  0  0  0  0  0  0
   -3.4112   -0.7717    0.0000 C   0  0  0  0  0  0  0  0  0  0  0  0
   -4.8690   -0.4183    0.0000 Cl  0  0  0  0  0  0  0  0  0  0  0  0
   -0.4956   -1.4786    0.0000 O   0  0  0  0  0  0  0  0  0  0  0  0
    0.5393   -0.3928    0.0000 P   0  0  0  0  0  0  0  0  0  0  0  0
    0.9621   -1.8320    0.0000 O   0  0  0  0  0  0  0  0  0  0  0  0
   -0.9185   -0.0394    0.0000 O   0  0  0  0  0  0  0  0  0  0  0  0
   -1.3413    1.3998    0.0000 C   0  0  0  0  0  0  0  0  0  0  0  0
    0.0979    1.8226    0.0000 C   0  0  0  0  0  0  0  0  0  0  0  0
    1.5370    2.2454    0.0000 Cl  0  0  0  0  0  0  0  0  0  0  0  0
   -1.7641    2.8390    0.0000 C   0  0  0  0  0  0  0  0  0  0  0  0
   -2.1869    4.2781    0.0000 Cl  0  0  0  0  0  0  0  0  0  0  0  0
    1.5742    0.6930    0.0000 O   0  0  0  0  0  0  0  0  0  0  0  0
    3.0320    0.3396    0.0000 C   0  0  0  0  0  0  0  0  0  0  0  0
    2.6786   -1.1182    0.0000 C   0  0  0  0  0  0  0  0  0  0  0  0
    2.3252   -2.5760    0.0000 Cl  0  0  0  0  0  0  0  0  0  0  0  0
    4.4898   -0.0138    0.0000 C   0  0  0  0  0  0  0  0  0  0  0  0
    5.9476   -0.3672    0.0000 Cl  0  0  0  0  0  0  0  0  0  0  0  0
   -2.6602   -4.0407    0.0000 Cl  0  0  0  0  0  0  0  0  0  0  0  0
   -0.8490   -2.9363    0.0000 H   0  0  0  0  0  0  0  0  0  0  0  0
   -3.1866   -2.4807    0.0000 H   0  0  0  0  0  0  0  0  0  0  0  0
   -1.9633    0.3748    0.0000 H   0  0  0  0  0  0  0  0  0  0  0  0
   -3.7232   -1.6007    0.0000 H   0  0  0  0  0  0  0  0  0  0  0  0
   -3.2710    0.4351    0.0000 H   0  0  0  0  0  0  0  0  0  0  0  0
   -2.5401    1.2020    0.0000 H   0  0  0  0  0  0  0  0  0  0  0  0
    0.6508    0.8792    0.0000 H   0  0  0  0  0  0  0  0  0  0  0  0
   -0.0463    2.6965    0.0000 H   0  0  0  0  0  0  0  0  0  0  0  0
   -3.2033    2.4161    0.0000 H   0  0  0  0  0  0  0  0  0  0  0  0
   -0.9511    3.1904    0.0000 H   0  0  0  0  0  0  0  0  0  0  0  0
    3.3854    1.7973    0.0000 H   0  0  0  0  0  0  0  0  0  0  0  0
    1.1786   -1.1280    0.0000 H   0  0  0  0  0  0  0  0  0  0  0  0
    4.0824   -1.6467    0.0000 H   0  0  0  0  0  0  0  0  0  0  0  0
    4.8432    1.4439    0.0000 H   0  0  0  0  0  0  0  0  0  0  0  0
    4.3167   -1.5038    0.0000 H   0  0  0  0  0  0  0  0  0  0  0  0
  1  2  1  0
  1 20  1  0
  1 21  1  0
  1 22  1  0
  2  3  1  0
  2  5  1  0
  2 23  1  0
  3  4  1  0
  3 24  1  0
  3 25  1  0
  5  6  1  0
  6  7  2  0
  6  8  1  0
  6 14  1  0
  8  9  1  0
  9 10  1  0
  9 12  1  0
  9 26  1  0
 10 11  1  0
 10 27  1  0
 10 28  1  0
 12 13  1  0
 12 29  1  0
 12 30  1  0
 14 15  1  0
 15 16  1  0
 15 18  1  0
 15 31  1  0
 16 17  1  0
 16 32  1  0
 16 33  1  0
 18 19  1  0
 18 34  1  0
 18 35  1  0
M  END
$$$$

     RDKit          2D

 41 43  0  0  1  0  0  0  0  0999 V2000
    2.2470    3.1410    0.0000 C   0  0  0  0  0  0  0  0  0  0  0  0
    2.0979    1.6484    0.0000 C   0  0  0  0  0  0  0  0  0  0  0  0
    3.5936    1.7607    0.0000 C   0  0  0  0  0  0  0  0  0  0  0  0
    4.4388    0.5215    0.0000 C   0  0  0  0  0  0  0  0  0  0  0  0
    5.9346    0.6338    0.0000 O   0  0  0  0  0  0  0  0  0  0  0  0
    3.7882   -0.8301    0.0000 C   0  0  0  0  0  0  0  0  0  0  0  0
    2.2924   -0.9424    0.0000 C   0  0  0  0  0  0  0  0  0  0  0  0
    1.4472    0.2969    0.0000 C   0  0  0  0  0  0  0  0  0  0  0  0
    0.6589   -0.9793    0.0000 C   0  0  0  0  0  0  0  0  0  0  0  0
    0.7866   -1.8557    0.0000 O   0  0  0  0  0  0  0  0  0  0  0  0
   -0.7984   -0.6239    0.0000 C   0  0  0  0  0  0  0  0  0  0  0  0
   -0.9107    0.8719    0.0000 C   0  0  0  0  0  0  0  0  0  0  0  0
    0.4772    1.4410    0.0000 O   0  0  0  0  0  0  0  0  0  0  0  0
   -2.2623    1.5226    0.0000 C   0  0  0  0  0  0  0  0  0  0  0  0
   -3.5015    0.6774    0.0000 C   0  0  0  0  0  0  0  0  0  0  0  0
   -3.3892   -0.8184    0.0000 C   0  0  0  0  0  0  0  0  0  0  0  0
   -2.0376   -1.4690    0.0000 C   0  0  0  0  0  0  0  0  0  0  0  0
   -1.9253   -2.9648    0.0000 O   0  0  0  0  0  0  0  0  0  0  0  0
   -3.1646   -3.8100    0.0000 C   0  0  0  0  0  0  0  0  0  0  0  0
   -4.8530    1.3280    0.0000 O   0  0  0  0  0  0  0  0  0  0  0  0
   -4.9654    2.8238    0.0000 C   0  0  0  0  0  0  0  0  0  0  0  0
   -2.3746    3.0184    0.0000 Cl  0  0  0  0  0  0  0  0  0  0  0  0
    1.6417   -2.2939    0.0000 O   0  0  0  0  0  0  0  0  0  0  0  0
    2.4869   -3.5332    0.0000 C   0  0  0  0  0  0  0  0  0  0  0  0
    3.0440    3.1590    0.0000 H   0  0  0  0  0  0  0  0  0  0  0  0
    0.9037    3.2752    0.0000 H   0  0  0  0  0  0  0  0  0  0  0  0
    2.3961    4.6335    0.0000 H   0  0  0  0  0  0  0  0  0  0  0  0
    0.9253    2.3175    0.0000 H   0  0  0  0  0  0  0  0  0  0  0  0
    3.4925    2.5514    0.0000 H   0  0  0  0  0  0  0  0  0  0  0  0
    4.9608    2.3778    0.0000 H   0  0  0  0  0  0  0  0  0  0  0  0
    4.6333   -2.0693    0.0000 H   0  0  0  0  0  0  0  0  0  0  0  0
   -4.6284   -1.6635    0.0000 H   0  0  0  0  0  0  0  0  0  0  0  0
   -2.3194   -5.0492    0.0000 H   0  0  0  0  0  0  0  0  0  0  0  0
   -4.0097   -2.5707    0.0000 H   0  0  0  0  0  0  0  0  0  0  0  0
   -4.4038   -4.6551    0.0000 H   0  0  0  0  0  0  0  0  0  0  0  0
   -6.4611    2.7115    0.0000 H   0  0  0  0  0  0  0  0  0  0  0  0
   -3.4696    2.9361    0.0000 H   0  0  0  0  0  0  0  0  0  0  0  0
   -5.0777    4.3196    0.0000 H   0  0  0  0  0  0  0  0  0  0  0  0
    1.2477   -4.3783    0.0000 H   0  0  0  0  0  0  0  0  0  0  0  0
    3.7261   -2.6880    0.0000 H   0  0  0  0  0  0  0  0  0  0  0  0
    3.3321   -4.7724    0.0000 H   0  0  0  0  0  0  0  0  0  0  0  0
  1  2  1  0
  1 25  1  0
  1 26  1  0
  1 27  1  0
  2  3  1  0
  2  8  1  0
  2 28  1  1
  3  4  1  0
  3 29  1  0
  3 30  1  0
  4  5  2  0
  4  6  1  0
  6  7  2  0
  6 31  1  0
  7 23  1  0
  8  7  1  0
  8  9  1  0
  8 13  1  1
  9 10  2  0
  9 11  1  0
 11 12  2  0
 11 17  1  0
 12 13  1  0
 12 14  1  0
 14 15  2  0
 14 22  1  0
 15 16  1  0
 15 20  1  0
 16 17  2  0
 16 32  1  0
 17 18  1  0
 18 19  1  0
 19 33  1  0
 19 34  1  0
 19 35  1  0
 20 21  1  0
 21 36  1  0
 21 37  1  0
 21 38  1  0
 23 24  1  0
 24 39  1  0
 24 40  1  0
 24 41  1  0
M  END
$$$$

     RDKit          2D

 28 29  0  0  0  0  0  0  0  0999 V2000
   -1.1611   -0.9782    0.0000 C   0  0  0  0  0  0  0  0  0  0  0  0
   -2.4231   -1.7891    0.0000 C   0  0  0  0  0  0  0  0  0  0  0  0
   -3.7563   -1.1016    0.0000 C   0  0  0  0  0  0  0  0  0  0  0  0
   -3.8275    0.3967    0.0000 C   0  0  0  0  0  0  0  0  0  0  0  0
   -2.5655    1.2076    0.0000 C   0  0  0  0  0  0  0  0  0  0  0  0
   -1.2323    0.5201    0.0000 C   0  0  0  0  0  0  0  0  0  0  0  0
    0.0296    1.3309    0.0000 C   0  0  0  0  0  0  0  0  0  0  0  0
   -0.0416    2.8292    0.0000 O   0  0  0  0  0  0  0  0  0  0  0  0
    1.3628    0.6435    0.0000 C   0  0  0  0  0  0  0  0  0  0  0  0
    2.6248    1.4543    0.0000 C   0  0  0  0  0  0  0  0  0  0  0  0
    3.9580    0.7668    0.0000 C   0  0  0  0  0  0  0  0  0  0  0  0
    4.0292   -0.7315    0.0000 C   0  0  0  0  0  0  0  0  0  0  0  0
    2.7672   -1.5423    0.0000 C   0  0  0  0  0  0  0  0  0  0  0  0
    1.4340   -0.8549    0.0000 C   0  0  0  0  0  0  0  0  0  0  0  0
    5.3624   -1.4190    0.0000 O   0  0  0  0  0  0  0  0  0  0  0  0
    2.5535    2.9526    0.0000 O   0  0  0  0  0  0  0  0  0  0  0  0
   -5.1607    1.0842    0.0000 O   0  0  0  0  0  0  0  0  0  0  0  0
   -5.0182   -1.9124    0.0000 O   0  0  0  0  0  0  0  0  0  0  0  0
   -0.3479   -1.5325    0.0000 H   0  0  0  0  0  0  0  0  0  0  0  0
   -2.3518   -3.2874    0.0000 H   0  0  0  0  0  0  0  0  0  0  0  0
   -2.6367    2.7059    0.0000 H   0  0  0  0  0  0  0  0  0  0  0  0
    5.2199    1.5777    0.0000 H   0  0  0  0  0  0  0  0  0  0  0  0
    2.8384   -3.0406    0.0000 H   0  0  0  0  0  0  0  0  0  0  0  0
    0.6771   -1.4838    0.0000 H   0  0  0  0  0  0  0  0  0  0  0  0
    5.4336   -2.9173    0.0000 H   0  0  0  0  0  0  0  0  0  0  0  0
    3.8155    3.7634    0.0000 H   0  0  0  0  0  0  0  0  0  0  0  0
   -5.2319    2.5825    0.0000 H   0  0  0  0  0  0  0  0  0  0  0  0
   -6.3514   -1.2249    0.0000 H   0  0  0  0  0  0  0  0  0  0  0  0
  1  2  2  0
  1  6  1  0
  1 19  1  0
  2  3  1  0
  2 20  1  0
  3  4  2  0
  3 18  1  0
  4  5  1  0
  4 17  1  0
  5  6  2  0
  5 21  1  0
  6  7  1  0
  7  8  2  0
  7  9  1  0
  9 10  2  0
  9 14  1  0
 10 11  1  0
 10 16  1  0
 11 12  2  0
 11 22  1  0
 12 13  1  0
 12 15  1  0
 13 14  2  0
 13 23  1  0
 14 24  1  0
 15 25  1  0
 16 26  1  0
 17 27  1  0
 18 28  1  0
M  END
$$$$

     RDKit          2D

 41 42  0  0  0  0  0  0  0  0999 V2000
   -4.9845    1.9479    0.0000 C   0  0  0  0  0  0  0  0  0  0  0  0
   -3.7945    1.0347    0.0000 C   0  0  0  0  0  0  0  0  0  0  0  0
   -2.6045    0.1216    0.0000 O   0  0  0  0  0  0  0  0  0  0  0  0
   -1.2187    0.6955    0.0000 C   0  0  0  0  0  0  0  0  0  0  0  0
   -1.0228    2.1827    0.0000 C   0  0  0  0  0  0  0  0  0  0  0  0
    0.3630    2.7567    0.0000 C   0  0  0  0  0  0  0  0  0  0  0  0
    1.5530    1.8435    0.0000 C   0  0  0  0  0  0  0  0  0  0  0  0
    1.3572    0.3564    0.0000 C   0  0  0  0  0  0  0  0  0  0  0  0
   -0.0287   -0.2176    0.0000 C   0  0  0  0  0  0  0  0  0  0  0  0
   -0.2245   -1.7048    0.0000 N   0  0  0  0  0  0  0  0  0  0  0  0
   -1.6103   -2.2788    0.0000 C   0  0  0  0  0  0  0  0  0  0  0  0
   -1.8062   -3.7659    0.0000 C   0  0  0  0  0  0  0  0  0  0  0  0
   -0.6162   -4.6791    0.0000 O   0  0  0  0  0  0  0  0  0  0  0  0
    0.7697   -4.1051    0.0000 C   0  0  0  0  0  0  0  0  0  0  0  0
    0.9655   -2.6180    0.0000 C   0  0  0  0  0  0  0  0  0  0  0  0
    2.9388    2.4175    0.0000 O   0  0  0  0  0  0  0  0  0  0  0  0
    4.1288    1.5043    0.0000 C   0  0  0  0  0  0  0  0  0  0  0  0
    5.3189    0.5911    0.0000 C   0  0  0  0  0  0  0  0  0  0  0  0
    0.5588    4.2439    0.0000 N   0  0  0  0  0  0  0  0  0  0  0  0
   -0.6312    5.1570    0.0000 O   0  0  0  0  0  0  0  0  0  0  0  0
    1.9447    4.8178    0.0000 O   0  0  0  0  0  0  0  0  0  0  0  0
   -4.0713    3.1379    0.0000 H   0  0  0  0  0  0  0  0  0  0  0  0
   -5.8977    0.7579    0.0000 H   0  0  0  0  0  0  0  0  0  0  0  0
   -6.1745    2.8611    0.0000 H   0  0  0  0  0  0  0  0  0  0  0  0
   -4.7077   -0.1553    0.0000 H   0  0  0  0  0  0  0  0  0  0  0  0
   -2.8813    2.2247    0.0000 H   0  0  0  0  0  0  0  0  0  0  0  0
   -2.2128    3.0959    0.0000 H   0  0  0  0  0  0  0  0  0  0  0  0
    2.5472   -0.5568    0.0000 H   0  0  0  0  0  0  0  0  0  0  0  0
   -3.1089   -2.3442    0.0000 H   0  0  0  0  0  0  0  0  0  0  0  0
   -1.9349   -0.8143    0.0000 H   0  0  0  0  0  0  0  0  0  0  0  0
   -2.4988   -5.0964    0.0000 H   0  0  0  0  0  0  0  0  0  0  0  0
   -3.2367   -3.3148    0.0000 H   0  0  0  0  0  0  0  0  0  0  0  0
    2.2683   -4.0397    0.0000 H   0  0  0  0  0  0  0  0  0  0  0  0
    1.0943   -5.5696    0.0000 H   0  0  0  0  0  0  0  0  0  0  0  0
    1.6582   -1.2875    0.0000 H   0  0  0  0  0  0  0  0  0  0  0  0
    2.3961   -3.0691    0.0000 H   0  0  0  0  0  0  0  0  0  0  0  0
    5.0420    2.6943    0.0000 H   0  0  0  0  0  0  0  0  0  0  0  0
    3.2157    0.3143    0.0000 H   0  0  0  0  0  0  0  0  0  0  0  0
    4.4057   -0.5989    0.0000 H   0  0  0  0  0  0  0  0  0  0  0  0
    6.2320    1.7812    0.0000 H   0  0  0  0  0  0  0  0  0  0  0  0
    6.5089   -0.3220    0.0000 H   0  0  0  0  0  0  0  0  0  0  0  0
  1  2  1  0
  1 22  1  0
  1 23  1  0
  1 24  1  0
  2  3  1  0
  2 25  1  0
  2 26  1  0
  3  4  1  0
  4  5  2  0
  4  9  1  0
  5  6  1  0
  5 27  1  0
  6  7  2  0
  6 19  1  0
  7  8  1  0
  7 16  1  0
  8  9  2  0
  8 28  1  0
  9 10  1  0
 10 11  1  0
 10 15  1  0
 11 12  1  0
 11 29  1  0
 11 30  1  0
 12 13  1  0
 12 31  1  0
 12 32  1  0
 13 14  1  0
 14 15  1  0
 14 33  1  0
 14 34  1  0
 15 35  1  0
 15 36  1  0
 16 17  1  0
 17 18  1  0
 17 37  1  0
 17 38  1  0
 18 39  1  0
 18 40  1  0
 18 41  1  0
 19 20  2  0
 19 21  1  0
M  CHG  2  19   1  21  -1
M  END
$$$$

     RDKit          2D

  8  6  0  0  0  0  0  0  0  0999 V2000
    0.6429   -0.0000    0.0000 C   0  0  0  0  0  0  0  0  0  0  0  0
   -0.8571    0.0000    0.0000 C   0  0  0  0  0  0  0  0  0  0  0  0
   -1.6071   -1.2990    0.0000 O   0  0  0  0  0  0  0  0  0  0  0  0
   -1.6071    1.2990    0.0000 O   0  0  0  0  0  0  0  0  0  0  0  0
    0.0000    2.5000    0.0000 Tl  0  0  0  0  0 15  0  0  0  0  0  0
    0.6429   -1.5000    0.0000 H   0  0  0  0  0  0  0  0  0  0  0  0
    0.6429    1.5000    0.0000 H   0  0  0  0  0  0  0  0  0  0  0  0
    2.1429   -0.0000    0.0000 H   0  0  0  0  0  0  0  0  0  0  0  0
  1  2  1  0
  1  6  1  0
  1  7  1  0
  1  8  1  0
  2  3  2  0
  2  4  1  0
M  CHG  2   4  -1   5   1
M  END
$$$$

     RDKit          2D

 44 44  0  0  0  0  0  0  0  0999 V2000
   -9.2083    0.5735    0.0000 C   0  0  0  0  0  0  0  0  0  0  0  0
   -7.7121    0.4658    0.0000 C   0  0  0  0  0  0  0  0  0  0  0  0
   -6.2160    0.3581    0.0000 C   0  0  0  0  0  0  0  0  0  0  0  0
   -4.7199    0.2504    0.0000 C   0  0  0  0  0  0  0  0  0  0  0  0
   -3.2237    0.1427    0.0000 C   0  0  0  0  0  0  0  0  0  0  0  0
   -1.7276    0.0350    0.0000 C   0  0  0  0  0  0  0  0  0  0  0  0
   -0.2315   -0.0727    0.0000 C   0  0  0  0  0  0  0  0  0  0  0  0
   -0.3392   -1.5689    0.0000 C   0  0  0  0  0  0  0  0  0  0  0  0
    1.2646   -0.1805    0.0000 O   0  0  0  0  0  0  0  0  0  0  0  0
    1.9194   -1.5300    0.0000 C   0  0  0  0  0  0  0  0  0  0  0  0
    1.4226   -2.2633    0.0000 O   0  0  0  0  0  0  0  0  0  0  0  0
    3.4155   -1.6377    0.0000 C   0  0  0  0  0  0  0  0  0  0  0  0
    4.9117   -1.7454    0.0000 O   0  0  0  0  0  0  0  0  0  0  0  0
    5.7530   -0.5036    0.0000 C   0  0  0  0  0  0  0  0  0  0  0  0
    5.0982    0.8459    0.0000 N   0  0  0  0  0  0  0  0  0  0  0  0
    5.9396    2.0878    0.0000 C   0  0  0  0  0  0  0  0  0  0  0  0
    7.4357    1.9801    0.0000 C   0  0  0  0  0  0  0  0  0  0  0  0
    8.0905    0.6305    0.0000 C   0  0  0  0  0  0  0  0  0  0  0  0
    7.2491   -0.6113    0.0000 C   0  0  0  0  0  0  0  0  0  0  0  0
    7.9039   -1.9609    0.0000 Cl  0  0  0  0  0  0  0  0  0  0  0  0
    9.5866    0.5228    0.0000 N   0  0  0  0  0  0  0  0  0  0  0  0
    8.2771    3.2219    0.0000 Cl  0  0  0  0  0  0  0  0  0  0  0  0
    5.2848    3.4373    0.0000 F   0  0  0  0  0  0  0  0  0  0  0  0
   -9.1005    2.0697    0.0000 H   0  0  0  0  0  0  0  0  0  0  0  0
   -9.3160   -0.9226    0.0000 H   0  0  0  0  0  0  0  0  0  0  0  0
  -10.7044    0.6813    0.0000 H   0  0  0  0  0  0  0  0  0  0  0  0
   -7.8198   -1.0303    0.0000 H   0  0  0  0  0  0  0  0  0  0  0  0
   -7.6044    1.9620    0.0000 H   0  0  0  0  0  0  0  0  0  0  0  0
   -6.1083    1.8542    0.0000 H   0  0  0  0  0  0  0  0  0  0  0  0
   -6.3237   -1.1380    0.0000 H   0  0  0  0  0  0  0  0  0  0  0  0
   -4.8276   -1.2457    0.0000 H   0  0  0  0  0  0  0  0  0  0  0  0
   -4.6122    1.7465    0.0000 H   0  0  0  0  0  0  0  0  0  0  0  0
   -3.1160    1.6388    0.0000 H   0  0  0  0  0  0  0  0  0  0  0  0
   -3.3315   -1.3534    0.0000 H   0  0  0  0  0  0  0  0  0  0  0  0
   -1.8984   -0.8341    0.0000 H   0  0  0  0  0  0  0  0  0  0  0  0
   -1.6199    1.5311    0.0000 H   0  0  0  0  0  0  0  0  0  0  0  0
   -0.1238    1.4234    0.0000 H   0  0  0  0  0  0  0  0  0  0  0  0
   -1.2238   -1.6134    0.0000 H   0  0  0  0  0  0  0  0  0  0  0  0
    0.5026   -1.8444    0.0000 H   0  0  0  0  0  0  0  0  0  0  0  0
   -0.4469   -3.0650    0.0000 H   0  0  0  0  0  0  0  0  0  0  0  0
    3.3078   -3.1338    0.0000 H   0  0  0  0  0  0  0  0  0  0  0  0
    3.5233   -0.1416    0.0000 H   0  0  0  0  0  0  0  0  0  0  0  0
   10.2414   -0.8267    0.0000 H   0  0  0  0  0  0  0  0  0  0  0  0
   10.4280    1.7646    0.0000 H   0  0  0  0  0  0  0  0  0  0  0  0
  1  2  1  0
  1 24  1  0
  1 25  1  0
  1 26  1  0
  2  3  1  0
  2 27  1  0
  2 28  1  0
  3  4  1  0
  3 29  1  0
  3 30  1  0
  4  5  1  0
  4 31  1  0
  4 32  1  0
  5  6  1  0
  5 33  1  0
  5 34  1  0
  6  7  1  0
  6 35  1  0
  6 36  1  0
  7  8  1  0
  7  9  1  0
  7 37  1  1
  8 38  1  0
  8 39  1  0
  8 40  1  0
  9 10  1  0
 10 11  2  0
 10 12  1  0
 12 13  1  0
 12 41  1  0
 12 42  1  0
 13 14  1  0
 14 15  2  0
 14 19  1  0
 15 16  1  0
 16 17  2  0
 16 23  1  0
 17 18  1  0
 17 22  1  0
 18 19  2  0
 18 21  1  0
 19 20  1  0
 21 43  1  0
 21 44  1  0
M  END
$$$$

     RDKit          2D

 17 17  0  0  0  0  0  0  0  0999 V2000
    1.8860   -1.1235    0.0000 C   0  0  0  0  0  0  0  0  0  0  0  0
    0.4834   -0.5918    0.0000 C   0  0  0  0  0  0  0  0  0  0  0  0
   -0.6783   -1.5407    0.0000 C   0  0  0  0  0  0  0  0  0  0  0  0
   -2.0810   -1.0090    0.0000 C   0  0  0  0  0  0  0  0  0  0  0  0
   -2.3219    0.4715    0.0000 C   0  0  0  0  0  0  0  0  0  0  0  0
   -1.1601    1.4204    0.0000 C   0  0  0  0  0  0  0  0  0  0  0  0
    0.2425    0.8887    0.0000 C   0  0  0  0  0  0  0  0  0  0  0  0
    1.4042    1.8376    0.0000 N   0  0  0  0  0  0  0  0  0  0  0  0
    1.1633    3.3181    0.0000 O   0  0  0  0  0  0  0  0  0  0  0  0
    2.8069    1.3059    0.0000 O   0  0  0  0  0  0  0  0  0  0  0  0
    2.4177    0.2792    0.0000 H   0  0  0  0  0  0  0  0  0  0  0  0
    1.3544   -2.5261    0.0000 H   0  0  0  0  0  0  0  0  0  0  0  0
    3.2886   -1.6551    0.0000 H   0  0  0  0  0  0  0  0  0  0  0  0
   -0.4375   -3.0212    0.0000 H   0  0  0  0  0  0  0  0  0  0  0  0
   -3.2427   -1.9579    0.0000 H   0  0  0  0  0  0  0  0  0  0  0  0
   -3.7245    1.0031    0.0000 H   0  0  0  0  0  0  0  0  0  0  0  0
   -1.4010    2.9009    0.0000 H   0  0  0  0  0  0  0  0  0  0  0  0
  1  2  1  0
  1 11  1  0
  1 12  1  0
  1 13  1  0
  2  3  2  0
  2  7  1  0
  3  4  1  0
  3 14  1  0
  4  5  2  0
  4 15  1  0
  5  6  1  0
  5 16  1  0
  6  7  2  0
  6 17  1  0
  7  8  1  0
  8  9  2  0
  8 10  1  0
M  CHG  2   8   1  10  -1
M  END
$$$$

     RDKit          2D

 44 47  0  0  1  0  0  0  0  0999 V2000
   -3.1806    1.4767    0.0000 C   0  0  0  0  0  0  0  0  0  0  0  0
   -2.2431    0.3058    0.0000 C   0  0  0  0  0  0  0  0  0  0  0  0
   -1.5547    1.6385    0.0000 C   0  0  0  0  0  0  0  0  0  0  0  0
   -0.0564    1.7086    0.0000 C   0  0  0  0  0  0  0  0  0  0  0  0
    0.7536    0.4461    0.0000 C   0  0  0  0  0  0  0  0  0  0  0  0
    0.0652   -0.8866    0.0000 C   0  0  0  0  0  0  0  0  0  0  0  0
   -1.4332   -0.9568    0.0000 C   0  0  0  0  0  0  0  0  0  0  0  0
   -2.3837   -2.1172    0.0000 C   0  0  0  0  0  0  0  0  0  0  0  0
   -3.7810   -1.5719    0.0000 C   0  0  0  0  0  0  0  0  0  0  0  0
   -3.6942   -0.0744    0.0000 C   0  0  0  0  0  0  0  0  0  0  0  0
   -3.9206    1.4084    0.0000 O   0  0  0  0  0  0  0  0  0  0  0  0
    0.8751   -2.1492    0.0000 C   0  0  0  0  0  0  0  0  0  0  0  0
    2.3734   -2.0790    0.0000 C   0  0  0  0  0  0  0  0  0  0  0  0
    3.0619   -0.7463    0.0000 C   0  0  0  0  0  0  0  0  0  0  0  0
    2.2519    0.5162    0.0000 C   0  0  0  0  0  0  0  0  0  0  0  0
    2.9404    1.8489    0.0000 C   0  0  0  0  0  0  0  0  0  0  0  0
    4.4387    1.9191    0.0000 C   0  0  0  0  0  0  0  0  0  0  0  0
    5.2487    0.6565    0.0000 C   0  0  0  0  0  0  0  0  0  0  0  0
    4.5602   -0.6762    0.0000 C   0  0  0  0  0  0  0  0  0  0  0  0
    6.7470    0.7267    0.0000 O   0  0  0  0  0  0  0  0  0  0  0  0
   -4.3516    0.5393    0.0000 H   0  0  0  0  0  0  0  0  0  0  0  0
   -2.0096    2.4142    0.0000 H   0  0  0  0  0  0  0  0  0  0  0  0
   -4.1181    2.6477    0.0000 H   0  0  0  0  0  0  0  0  0  0  0  0
   -1.3636    3.1262    0.0000 H   0  0  0  0  0  0  0  0  0  0  0  0
   -2.8361    2.4183    0.0000 H   0  0  0  0  0  0  0  0  0  0  0  0
    1.2468    2.4514    0.0000 H   0  0  0  0  0  0  0  0  0  0  0  0
   -0.3856    3.1720    0.0000 H   0  0  0  0  0  0  0  0  0  0  0  0
    1.5993    1.6849    0.0000 H   0  0  0  0  0  0  0  0  0  0  0  0
   -0.6233   -2.2193    0.0000 H   0  0  0  0  0  0  0  0  0  0  0  0
   -0.8879    0.4406    0.0000 H   0  0  0  0  0  0  0  0  0  0  0  0
   -1.3669   -3.2200    0.0000 H   0  0  0  0  0  0  0  0  0  0  0  0
   -3.0721   -3.4499    0.0000 H   0  0  0  0  0  0  0  0  0  0  0  0
   -4.1773   -3.0186    0.0000 H   0  0  0  0  0  0  0  0  0  0  0  0
   -5.2612   -1.3289    0.0000 H   0  0  0  0  0  0  0  0  0  0  0  0
   -5.1925   -0.1445    0.0000 H   0  0  0  0  0  0  0  0  0  0  0  0
   -5.3179    1.9538    0.0000 H   0  0  0  0  0  0  0  0  0  0  0  0
    1.2044   -3.6126    0.0000 H   0  0  0  0  0  0  0  0  0  0  0  0
   -0.3278   -3.0452    0.0000 H   0  0  0  0  0  0  0  0  0  0  0  0
    3.8054   -2.5255    0.0000 H   0  0  0  0  0  0  0  0  0  0  0  0
    2.1823   -3.5668    0.0000 H   0  0  0  0  0  0  0  0  0  0  0  0
    2.1304    3.1115    0.0000 H   0  0  0  0  0  0  0  0  0  0  0  0
    5.1271    3.2518    0.0000 H   0  0  0  0  0  0  0  0  0  0  0  0
    5.3702   -1.9387    0.0000 H   0  0  0  0  0  0  0  0  0  0  0  0
    7.5569   -0.5359    0.0000 H   0  0  0  0  0  0  0  0  0  0  0  0
  1 21  1  0
  1 22  1  0
  1 23  1  0
  2  1  1  6
  2  3  1  0
  2  7  1  0
  2 10  1  0
  3  4  1  0
  3 24  1  0
  3 25  1  0
  4  5  1  0
  4 26  1  0
  4 27  1  0
  5  6  1  0
  5 15  1  0
  5 28  1  1
  6  7  1  0
  6 12  1  0
  6 29  1  6
  7  8  1  0
  7 30  1  1
  8  9  1  0
  8 31  1  0
  8 32  1  0
  9 10  1  0
  9 33  1  0
  9 34  1  0
 10 11  1  0
 10 35  1  1
 11 36  1  0
 12 13  1  0
 12 37  1  0
 12 38  1  0
 13 14  1  0
 13 39  1  0
 13 40  1  0
 14 15  2  0
 14 19  1  0
 15 16  1  0
 16 17  2  0
 16 41  1  0
 17 18  1  0
 17 42  1  0
 18 19  2  0
 18 20  1  0
 19 43  1  0
 20 44  1  0
M  END
$$$$

     RDKit          2D

 39 40  0  0  1  0  0  0  0  0999 V2000
   -2.3860   -2.0455    0.0000 C   0  0  0  0  0  0  0  0  0  0  0  0
   -1.6694   -0.7277    0.0000 C   0  0  0  0  0  0  0  0  0  0  0  0
   -3.0915   -0.2508    0.0000 C   0  0  0  0  0  0  0  0  0  0  0  0
   -3.3895    1.2193    0.0000 C   0  0  0  0  0  0  0  0  0  0  0  0
   -2.2654    2.2125    0.0000 C   0  0  0  0  0  0  0  0  0  0  0  0
   -0.8432    1.7355    0.0000 C   0  0  0  0  0  0  0  0  0  0  0  0
   -0.5452    0.2654    0.0000 C   0  0  0  0  0  0  0  0  0  0  0  0
    0.8769   -0.2115    0.0000 C   0  0  0  0  0  0  0  0  0  0  0  0
    2.0011    0.7816    0.0000 C   0  0  0  0  0  0  0  0  0  0  0  0
    1.7030    2.2517    0.0000 C   0  0  0  0  0  0  0  0  0  0  0  0
    0.2809    2.7287    0.0000 C   0  0  0  0  0  0  0  0  0  0  0  0
    2.7839   -0.4979    0.0000 C   0  0  0  0  0  0  0  0  0  0  0  0
    2.0672   -1.8156    0.0000 C   0  0  0  0  0  0  0  0  0  0  0  0
    4.2834   -0.4597    0.0000 C   0  0  0  0  0  0  0  0  0  0  0  0
   -0.2472   -1.2047    0.0000 C   0  0  0  0  0  0  0  0  0  0  0  0
   -1.4254   -2.5679    0.0000 H   0  0  0  0  0  0  0  0  0  0  0  0
   -3.1275   -1.7528    0.0000 H   0  0  0  0  0  0  0  0  0  0  0  0
   -3.1027   -3.3632    0.0000 H   0  0  0  0  0  0  0  0  0  0  0  0
   -1.1151   -1.6704    0.0000 H   0  0  0  0  0  0  0  0  0  0  0  0
   -3.3051   -1.0188    0.0000 H   0  0  0  0  0  0  0  0  0  0  0  0
   -4.5910   -0.2890    0.0000 H   0  0  0  0  0  0  0  0  0  0  0  0
   -4.7855    0.6705    0.0000 H   0  0  0  0  0  0  0  0  0  0  0  0
   -4.1724    2.4988    0.0000 H   0  0  0  0  0  0  0  0  0  0  0  0
   -2.5634    3.6826    0.0000 H   0  0  0  0  0  0  0  0  0  0  0  0
    1.9275   -1.2822    0.0000 H   0  0  0  0  0  0  0  0  0  0  0  0
    0.5004   -1.6635    0.0000 H   0  0  0  0  0  0  0  0  0  0  0  0
    3.3198    1.4965    0.0000 H   0  0  0  0  0  0  0  0  0  0  0  0
    1.9258    3.7351    0.0000 H   0  0  0  0  0  0  0  0  0  0  0  0
    3.2025    2.2899    0.0000 H   0  0  0  0  0  0  0  0  0  0  0  0
   -0.8924    3.6632    0.0000 H   0  0  0  0  0  0  0  0  0  0  0  0
    0.9975    4.0464    0.0000 H   0  0  0  0  0  0  0  0  0  0  0  0
    2.8501   -3.0951    0.0000 H   0  0  0  0  0  0  0  0  0  0  0  0
    0.5836   -2.0363    0.0000 H   0  0  0  0  0  0  0  0  0  0  0  0
    4.3216   -1.9592    0.0000 H   0  0  0  0  0  0  0  0  0  0  0  0
    4.4283    1.0333    0.0000 H   0  0  0  0  0  0  0  0  0  0  0  0
    5.7829   -0.4215    0.0000 H   0  0  0  0  0  0  0  0  0  0  0  0
   -1.6015   -1.8496    0.0000 H   0  0  0  0  0  0  0  0  0  0  0  0
    1.2320   -1.4534    0.0000 H   0  0  0  0  0  0  0  0  0  0  0  0
    0.0508   -2.6748    0.0000 H   0  0  0  0  0  0  0  0  0  0  0  0
  1  2  1  0
  1 16  1  0
  1 17  1  0
  1 18  1  0
  2  3  1  0
  2  7  1  0
  2 19  1  1
  3  4  1  0
  3 20  1  0
  3 21  1  0
  4  5  1  0
  4 22  1  0
  4 23  1  0
  5  6  2  0
  5 24  1  0
  6  7  1  0
  6 11  1  0
  7  8  1  0
  7 15  1  6
  8  9  1  0
  8 25  1  0
  8 26  1  0
  9 10  1  0
  9 27  1  6
  9 12  1  0
 10 11  1  0
 10 28  1  0
 10 29  1  0
 11 30  1  0
 11 31  1  0
 12 13  2  0
 12 14  1  0
 13 32  1  0
 13 33  1  0
 14 34  1  0
 14 35  1  0
 14 36  1  0
 15 37  1  0
 15 38  1  0
 15 39  1  0
M  END
$$$$

     RDKit          2D

 36 37  0  0  0  0  0  0  0  0999 V2000
   -2.0169   -0.2302    0.0000 C   0  0  0  0  0  0  0  0  0  0  0  0
   -0.8898    0.7596    0.0000 C   0  0  0  0  0  0  0  0  0  0  0  0
    0.2372    1.7494    0.0000 C   0  0  0  0  0  0  0  0  0  0  0  0
   -1.8796    1.8867    0.0000 C   0  0  0  0  0  0  0  0  0  0  0  0
    0.1000   -0.3674    0.0000 C   0  0  0  0  0  0  0  0  0  0  0  0
    1.5242    0.1033    0.0000 O   0  0  0  0  0  0  0  0  0  0  0  0
   -0.3812   -1.7882    0.0000 C   0  0  0  0  0  0  0  0  0  0  0  0
   -1.8019   -1.3070    0.0000 N   0  0  0  0  0  0  0  0  0  0  0  0
   -3.0263   -2.1736    0.0000 C   0  0  0  0  0  0  0  0  0  0  0  0
   -4.2288   -1.2769    0.0000 N   0  0  0  0  0  0  0  0  0  0  0  0
   -3.7476    0.1438    0.0000 C   0  0  0  0  0  0  0  0  0  0  0  0
   -2.2477    0.1252    0.0000 N   0  0  0  0  0  0  0  0  0  0  0  0
    1.0395   -2.2693    0.0000 O   0  0  0  0  0  0  0  0  0  0  0  0
    2.1666   -1.2795    0.0000 C   0  0  0  0  0  0  0  0  0  0  0  0
    3.5873   -1.7607    0.0000 C   0  0  0  0  0  0  0  0  0  0  0  0
    4.7144   -0.7709    0.0000 C   0  0  0  0  0  0  0  0  0  0  0  0
    4.4207    0.7001    0.0000 C   0  0  0  0  0  0  0  0  0  0  0  0
    3.0000    1.1812    0.0000 C   0  0  0  0  0  0  0  0  0  0  0  0
    1.8729    0.1914    0.0000 C   0  0  0  0  0  0  0  0  0  0  0  0
    5.5478    1.6899    0.0000 Cl  0  0  0  0  0  0  0  0  0  0  0  0
   -3.1367    0.7678    0.0000 H   0  0  0  0  0  0  0  0  0  0  0  0
   -1.6722   -1.6901    0.0000 H   0  0  0  0  0  0  0  0  0  0  0  0
   -3.1440   -1.2200    0.0000 H   0  0  0  0  0  0  0  0  0  0  0  0
   -0.6078    2.9887    0.0000 H   0  0  0  0  0  0  0  0  0  0  0  0
    1.4703    0.8954    0.0000 H   0  0  0  0  0  0  0  0  0  0  0  0
    1.3643    2.7392    0.0000 H   0  0  0  0  0  0  0  0  0  0  0  0
   -3.1190    1.0416    0.0000 H   0  0  0  0  0  0  0  0  0  0  0  0
   -0.8816    3.0065    0.0000 H   0  0  0  0  0  0  0  0  0  0  0  0
   -2.8695    3.0138    0.0000 H   0  0  0  0  0  0  0  0  0  0  0  0
   -0.8624   -3.2089    0.0000 H   0  0  0  0  0  0  0  0  0  0  0  0
   -3.0449   -3.6735    0.0000 H   0  0  0  0  0  0  0  0  0  0  0  0
   -4.6142    1.3681    0.0000 H   0  0  0  0  0  0  0  0  0  0  0  0
    3.8810   -3.2317    0.0000 H   0  0  0  0  0  0  0  0  0  0  0  0
    6.1351   -1.2520    0.0000 H   0  0  0  0  0  0  0  0  0  0  0  0
    2.7063    2.6522    0.0000 H   0  0  0  0  0  0  0  0  0  0  0  0
    0.4042    0.4958    0.0000 H   0  0  0  0  0  0  0  0  0  0  0  0
  1  2  1  0
  1 21  1  0
  1 22  1  0
  1 23  1  0
  2  3  1  0
  2  4  1  0
  2  5  1  0
  3 24  1  0
  3 25  1  0
  3 26  1  0
  4 27  1  0
  4 28  1  0
  4 29  1  0
  5  6  2  0
  5  7  1  0
  7  8  1  0
  7 13  1  0
  7 30  1  1
  8  9  1  0
  8 12  1  0
  9 10  2  0
  9 31  1  0
 10 11  1  0
 11 12  2  0
 11 32  1  0
 13 14  1  0
 14 15  2  0
 14 19  1  0
 15 16  1  0
 15 33  1  0
 16 17  2  0
 16 34  1  0
 17 18  1  0
 17 20  1  0
 18 19  2  0
 18 35  1  0
 19 36  1  0
M  END
$$$$

     RDKit          2D

 39 39  0  0  0  0  0  0  0  0999 V2000
   -5.2117   -0.3192    0.0000 C   0  0  0  0  0  0  0  0  0  0  0  0
   -3.7246   -0.5160    0.0000 C   0  0  0  0  0  0  0  0  0  0  0  0
   -2.2376   -0.7129    0.0000 N   0  0  0  0  0  0  0  0  0  0  0  0
   -1.6646   -2.0991    0.0000 C   0  0  0  0  0  0  0  0  0  0  0  0
   -1.0916   -3.4854    0.0000 C   0  0  0  0  0  0  0  0  0  0  0  0
   -1.3236    0.4765    0.0000 C   0  0  0  0  0  0  0  0  0  0  0  0
   -1.8966    1.8627    0.0000 N   0  0  0  0  0  0  0  0  0  0  0  0
   -0.9826    3.0521    0.0000 C   0  0  0  0  0  0  0  0  0  0  0  0
    0.5044    2.8552    0.0000 C   0  0  0  0  0  0  0  0  0  0  0  0
    1.0774    1.4690    0.0000 C   0  0  0  0  0  0  0  0  0  0  0  0
    0.1634    0.2796    0.0000 N   0  0  0  0  0  0  0  0  0  0  0  0
    2.5644    1.2721    0.0000 O   0  0  0  0  0  0  0  0  0  0  0  0
    3.1375   -0.1141    0.0000 P   0  0  0  0  0  0  0  0  0  0  0  0
    4.6245   -0.3110    0.0000 S   0  0  0  0  0  0  0  0  0  0  0  0
    4.0515    1.0752    0.0000 O   0  0  0  0  0  0  0  0  0  0  0  0
    5.5385    0.8784    0.0000 C   0  0  0  0  0  0  0  0  0  0  0  0
    3.7105   -1.5004    0.0000 O   0  0  0  0  0  0  0  0  0  0  0  0
    2.7965   -2.6897    0.0000 C   0  0  0  0  0  0  0  0  0  0  0  0
   -1.5556    4.4383    0.0000 C   0  0  0  0  0  0  0  0  0  0  0  0
   -5.0148    1.1679    0.0000 H   0  0  0  0  0  0  0  0  0  0  0  0
   -5.4085   -1.8062    0.0000 H   0  0  0  0  0  0  0  0  0  0  0  0
   -6.6987   -0.1223    0.0000 H   0  0  0  0  0  0  0  0  0  0  0  0
   -3.9215   -2.0031    0.0000 H   0  0  0  0  0  0  0  0  0  0  0  0
   -3.5278    0.9710    0.0000 H   0  0  0  0  0  0  0  0  0  0  0  0
   -3.0508   -2.6722    0.0000 H   0  0  0  0  0  0  0  0  0  0  0  0
   -0.2784   -1.5261    0.0000 H   0  0  0  0  0  0  0  0  0  0  0  0
   -2.4778   -4.0584    0.0000 H   0  0  0  0  0  0  0  0  0  0  0  0
    0.2947   -2.9123    0.0000 H   0  0  0  0  0  0  0  0  0  0  0  0
   -0.5185   -4.8716    0.0000 H   0  0  0  0  0  0  0  0  0  0  0  0
    1.4184    4.0446    0.0000 H   0  0  0  0  0  0  0  0  0  0  0  0
    5.7073   -0.6121    0.0000 H   0  0  0  0  0  0  0  0  0  0  0  0
    5.7354    2.3654    0.0000 H   0  0  0  0  0  0  0  0  0  0  0  0
    7.0255    0.6815    0.0000 H   0  0  0  0  0  0  0  0  0  0  0  0
    3.9859   -3.6037    0.0000 H   0  0  0  0  0  0  0  0  0  0  0  0
    1.6071   -1.7757    0.0000 H   0  0  0  0  0  0  0  0  0  0  0  0
    1.8825   -3.8791    0.0000 H   0  0  0  0  0  0  0  0  0  0  0  0
   -2.9419    3.8653    0.0000 H   0  0  0  0  0  0  0  0  0  0  0  0
   -0.1694    5.0113    0.0000 H   0  0  0  0  0  0  0  0  0  0  0  0
   -2.1287    5.8245    0.0000 H   0  0  0  0  0  0  0  0  0  0  0  0
  1  2  1  0
  1 20  1  0
  1 21  1  0
  1 22  1  0
  2  3  1  0
  2 23  1  0
  2 24  1  0
  3  4  1  0
  3  6  1  0
  4  5  1  0
  4 25  1  0
  4 26  1  0
  5 27  1  0
  5 28  1  0
  5 29  1  0
  6  7  2  0
  6 11  1  0
  7  8  1  0
  8  9  2  0
  8 19  1  0
  9 10  1  0
  9 30  1  0
 10 11  2  0
 10 12  1  0
 12 13  1  0
 13 14  2  0
 13 15  1  0
 13 17  1  0
 15 16  1  0
 16 31  1  0
 16 32  1  0
 16 33  1  0
 17 18  1  0
 18 34  1  0
 18 35  1  0
 18 36  1  0
 19 37  1  0
 19 38  1  0
 19 39  1  0
M  END
$$$$

     RDKit          2D

 35 36  0  0  0  0  0  0  0  0999 V2000
    6.3342    0.8068    0.0000 C   0  0  0  0  0  0  0  0  0  0  0  0
    5.1601   -0.1268    0.0000 N   0  0  0  0  0  0  0  0  0  0  0  0
    5.3817   -1.6104    0.0000 C   0  0  0  0  0  0  0  0  0  0  0  0
    3.7646    0.4231    0.0000 C   0  0  0  0  0  0  0  0  0  0  0  0
    3.5430    1.9066    0.0000 O   0  0  0  0  0  0  0  0  0  0  0  0
    2.5905   -0.5106    0.0000 N   0  0  0  0  0  0  0  0  0  0  0  0
    1.1950    0.0393    0.0000 C   0  0  0  0  0  0  0  0  0  0  0  0
    0.0210   -0.8943    0.0000 C   0  0  0  0  0  0  0  0  0  0  0  0
   -1.3746   -0.3444    0.0000 C   0  0  0  0  0  0  0  0  0  0  0  0
   -1.5961    1.1392    0.0000 C   0  0  0  0  0  0  0  0  0  0  0  0
   -0.4221    2.0728    0.0000 C   0  0  0  0  0  0  0  0  0  0  0  0
    0.9734    1.5229    0.0000 C   0  0  0  0  0  0  0  0  0  0  0  0
   -2.9917    1.6891    0.0000 O   0  0  0  0  0  0  0  0  0  0  0  0
   -4.1657    0.7554    0.0000 C   0  0  0  0  0  0  0  0  0  0  0  0
   -5.5613    1.3054    0.0000 C   0  0  0  0  0  0  0  0  0  0  0  0
   -6.7353    0.3717    0.0000 C   0  0  0  0  0  0  0  0  0  0  0  0
   -6.5138   -1.1118    0.0000 C   0  0  0  0  0  0  0  0  0  0  0  0
   -5.1182   -1.6617    0.0000 C   0  0  0  0  0  0  0  0  0  0  0  0
   -3.9442   -0.7281    0.0000 C   0  0  0  0  0  0  0  0  0  0  0  0
   -7.6878   -2.0455    0.0000 Cl  0  0  0  0  0  0  0  0  0  0  0  0
    7.2678   -0.3672    0.0000 H   0  0  0  0  0  0  0  0  0  0  0  0
    5.4005    1.9808    0.0000 H   0  0  0  0  0  0  0  0  0  0  0  0
    7.5082    1.7404    0.0000 H   0  0  0  0  0  0  0  0  0  0  0  0
    6.8652   -1.3889    0.0000 H   0  0  0  0  0  0  0  0  0  0  0  0
    3.8981   -1.8319    0.0000 H   0  0  0  0  0  0  0  0  0  0  0  0
    5.6032   -3.0939    0.0000 H   0  0  0  0  0  0  0  0  0  0  0  0
    2.8121   -1.9941    0.0000 H   0  0  0  0  0  0  0  0  0  0  0  0
    0.2425   -2.3778    0.0000 H   0  0  0  0  0  0  0  0  0  0  0  0
   -2.0645   -1.0463    0.0000 H   0  0  0  0  0  0  0  0  0  0  0  0
   -0.6437    3.5564    0.0000 H   0  0  0  0  0  0  0  0  0  0  0  0
    2.1475    2.4565    0.0000 H   0  0  0  0  0  0  0  0  0  0  0  0
   -5.7828    2.7889    0.0000 H   0  0  0  0  0  0  0  0  0  0  0  0
   -8.1309    0.9216    0.0000 H   0  0  0  0  0  0  0  0  0  0  0  0
   -4.8967   -3.1453    0.0000 H   0  0  0  0  0  0  0  0  0  0  0  0
   -3.0794   -1.1978    0.0000 H   0  0  0  0  0  0  0  0  0  0  0  0
  1  2  1  0
  1 21  1  0
  1 22  1  0
  1 23  1  0
  2  3  1  0
  2  4  1  0
  3 24  1  0
  3 25  1  0
  3 26  1  0
  4  5  2  0
  4  6  1  0
  6  7  1  0
  6 27  1  0
  7  8  2  0
  7 12  1  0
  8  9  1  0
  8 28  1  0
  9 10  2  0
  9 29  1  0
 10 11  1  0
 10 13  1  0
 11 12  2  0
 11 30  1  0
 12 31  1  0
 13 14  1  0
 14 15  2  0
 14 19  1  0
 15 16  1  0
 15 32  1  0
 16 17  2  0
 16 33  1  0
 17 18  1  0
 17 20  1  0
 18 19  2  0
 18 34  1  0
 19 35  1  0
M  END
$$$$

     RDKit          2D

 92 97  0  0  1  0  0  0  0  0999 V2000
    5.8167    3.8304    0.0000 C   0  0  0  0  0  0  0  0  0  0  0  0
    6.8812    2.7736    0.0000 C   0  0  0  0  0  0  0  0  0  0  0  0
    7.9380    3.8382    0.0000 C   0  0  0  0  0  0  0  0  0  0  0  0
    5.8245    1.7091    0.0000 C   0  0  0  0  0  0  0  0  0  0  0  0
    4.7677    0.6445    0.0000 C   0  0  0  0  0  0  0  0  0  0  0  0
    5.9996   -0.2113    0.0000 C   0  0  0  0  0  0  0  0  0  0  0  0
    7.0383    0.1304    0.0000 O   0  0  0  0  0  0  0  0  0  0  0  0
    5.8743   -1.7061    0.0000 N   0  0  0  0  0  0  0  0  0  0  0  0
    6.9014   -2.7994    0.0000 C   0  0  0  0  0  0  0  0  0  0  0  0
    6.1790   -4.1139    0.0000 C   0  0  0  0  0  0  0  0  0  0  0  0
    4.7055   -3.8331    0.0000 C   0  0  0  0  0  0  0  0  0  0  0  0
    4.5172   -2.3450    0.0000 C   0  0  0  0  0  0  0  0  0  0  0  0
    3.2853   -1.4891    0.0000 C   0  0  0  0  0  0  0  0  0  0  0  0
    3.4106    0.0056    0.0000 N   0  0  0  0  0  0  0  0  0  0  0  0
    2.0277    0.5867    0.0000 C   0  0  0  0  0  0  0  0  0  0  0  0
    1.6849    2.0470    0.0000 O   0  0  0  0  0  0  0  0  0  0  0  0
    1.0478   -0.5490    0.0000 C   0  0  0  0  0  0  0  0  0  0  0  0
    1.8250   -1.8319    0.0000 O   0  0  0  0  0  0  0  0  0  0  0  0
   -0.1469   -1.4561    0.0000 C   0  0  0  0  0  0  0  0  0  0  0  0
    0.7602   -2.6508    0.0000 C   0  0  0  0  0  0  0  0  0  0  0  0
   -1.3415   -2.3632    0.0000 C   0  0  0  0  0  0  0  0  0  0  0  0
    0.0208    0.5443    0.0000 N   0  0  0  0  0  0  0  0  0  0  0  0
   -1.4396    0.2015    0.0000 C   0  0  0  0  0  0  0  0  0  0  0  0
   -1.8729   -1.2346    0.0000 O   0  0  0  0  0  0  0  0  0  0  0  0
   -2.4666    1.2947    0.0000 C   0  0  0  0  0  0  0  0  0  0  0  0
   -3.0577    2.6733    0.0000 C   0  0  0  0  0  0  0  0  0  0  0  0
   -4.5472    2.8507    0.0000 N   0  0  0  0  0  0  0  0  0  0  0  0
   -5.4455    1.6494    0.0000 C   0  0  0  0  0  0  0  0  0  0  0  0
   -6.9350    1.8268    0.0000 C   0  0  0  0  0  0  0  0  0  0  0  0
   -7.8333    0.6255    0.0000 C   0  0  0  0  0  0  0  0  0  0  0  0
   -9.3271    0.4893    0.0000 C   0  0  0  0  0  0  0  0  0  0  0  0
   -9.6592   -0.9735    0.0000 N   0  0  0  0  0  0  0  0  0  0  0  0
   -8.3706   -1.7413    0.0000 C   0  0  0  0  0  0  0  0  0  0  0  0
   -7.7906   -3.1320    0.0000 C   0  0  0  0  0  0  0  0  0  0  0  0
   -6.3278   -3.4640    0.0000 C   0  0  0  0  0  0  0  0  0  0  0  0
   -5.3089   -2.3633    0.0000 C   0  0  0  0  0  0  0  0  0  0  0  0
   -5.7527   -0.9304    0.0000 C   0  0  0  0  0  0  0  0  0  0  0  0
   -7.2422   -0.7531    0.0000 C   0  0  0  0  0  0  0  0  0  0  0  0
   -4.8544    0.2708    0.0000 C   0  0  0  0  0  0  0  0  0  0  0  0
   -3.3649    0.0935    0.0000 C   0  0  0  0  0  0  0  0  0  0  0  0
  -10.3154    1.6177    0.0000 Br  0  0  0  0  0  0  0  0  0  0  0  0
   -5.1384    4.2293    0.0000 C   0  0  0  0  0  0  0  0  0  0  0  0
    2.3782   -0.2945    0.0000 O   0  0  0  0  0  0  0  0  0  0  0  0
    1.0809    8.0490    0.0000 C   0  0  0  0  0  0  0  0  0  0  0  0
   -0.3603    8.4651    0.0000 S   0  0  0  0  0  0  0  0  0  0  0  0
    0.0557    9.9062    0.0000 O   0  0  0  0  0  0  0  0  0  0  0  0
   -0.7763    7.0239    0.0000 O   0  0  0  0  0  0  0  0  0  0  0  0
   -1.8014    8.8811    0.0000 O   0  0  0  0  0  0  0  0  0  0  0  0
    6.3594    4.5304    0.0000 H   0  0  0  0  0  0  0  0  0  0  0  0
    5.1207    3.2825    0.0000 H   0  0  0  0  0  0  0  0  0  0  0  0
    4.7522    4.8871    0.0000 H   0  0  0  0  0  0  0  0  0  0  0  0
    7.9458    1.7169    0.0000 H   0  0  0  0  0  0  0  0  0  0  0  0
    9.0026    2.7814    0.0000 H   0  0  0  0  0  0  0  0  0  0  0  0
    7.3902    4.5341    0.0000 H   0  0  0  0  0  0  0  0  0  0  0  0
    8.9948    4.9027    0.0000 H   0  0  0  0  0  0  0  0  0  0  0  0
    6.6887    1.0390    0.0000 H   0  0  0  0  0  0  0  0  0  0  0  0
    5.1245    2.2518    0.0000 H   0  0  0  0  0  0  0  0  0  0  0  0
    3.9029    1.8701    0.0000 H   0  0  0  0  0  0  0  0  0  0  0  0
    7.8813   -1.6637    0.0000 H   0  0  0  0  0  0  0  0  0  0  0  0
    8.1332   -3.6552    0.0000 H   0  0  0  0  0  0  0  0  0  0  0  0
    7.5619   -4.6950    0.0000 H   0  0  0  0  0  0  0  0  0  0  0  0
    5.7457   -5.5500    0.0000 H   0  0  0  0  0  0  0  0  0  0  0  0
    4.5802   -5.3279    0.0000 H   0  0  0  0  0  0  0  0  0  0  0  0
    3.2209   -4.0474    0.0000 H   0  0  0  0  0  0  0  0  0  0  0  0
    3.1491   -2.9601    0.0000 H   0  0  0  0  0  0  0  0  0  0  0  0
   -1.1992   -0.6105    0.0000 H   0  0  0  0  0  0  0  0  0  0  0  0
    2.0010   -2.1188    0.0000 H   0  0  0  0  0  0  0  0  0  0  0  0
   -0.3149   -3.6967    0.0000 H   0  0  0  0  0  0  0  0  0  0  0  0
    1.6674   -3.8454    0.0000 H   0  0  0  0  0  0  0  0  0  0  0  0
   -2.5107   -1.4236    0.0000 H   0  0  0  0  0  0  0  0  0  0  0  0
   -0.5868   -3.6595    0.0000 H   0  0  0  0  0  0  0  0  0  0  0  0
   -2.5361   -3.2703    0.0000 H   0  0  0  0  0  0  0  0  0  0  0  0
    0.4540    1.9803    0.0000 H   0  0  0  0  0  0  0  0  0  0  0  0
   -1.2116    2.1163    0.0000 H   0  0  0  0  0  0  0  0  0  0  0  0
   -2.9585    4.1701    0.0000 H   0  0  0  0  0  0  0  0  0  0  0  0
   -1.5974    3.0161    0.0000 H   0  0  0  0  0  0  0  0  0  0  0  0
   -6.0367    3.0280    0.0000 H   0  0  0  0  0  0  0  0  0  0  0  0
   -8.2740    2.5028    0.0000 H   0  0  0  0  0  0  0  0  0  0  0  0
   -6.8621    3.3250    0.0000 H   0  0  0  0  0  0  0  0  0  0  0  0
  -11.0378   -1.5646    0.0000 H   0  0  0  0  0  0  0  0  0  0  0  0
   -8.8096   -4.2328    0.0000 H   0  0  0  0  0  0  0  0  0  0  0  0
   -5.8840   -4.8969    0.0000 H   0  0  0  0  0  0  0  0  0  0  0  0
   -3.8461   -2.6953    0.0000 H   0  0  0  0  0  0  0  0  0  0  0  0
   -3.1249   -1.3872    0.0000 H   0  0  0  0  0  0  0  0  0  0  0  0
   -3.8421    4.9841    0.0000 H   0  0  0  0  0  0  0  0  0  0  0  0
   -6.6190    3.9893    0.0000 H   0  0  0  0  0  0  0  0  0  0  0  0
   -5.7295    5.6079    0.0000 H   0  0  0  0  0  0  0  0  0  0  0  0
    2.9593    1.0884    0.0000 H   0  0  0  0  0  0  0  0  0  0  0  0
    0.6648    6.6079    0.0000 H   0  0  0  0  0  0  0  0  0  0  0  0
    1.4969    9.4902    0.0000 H   0  0  0  0  0  0  0  0  0  0  0  0
    2.5220    7.6330    0.0000 H   0  0  0  0  0  0  0  0  0  0  0  0
   -2.8823    7.8410    0.0000 H   0  0  0  0  0  0  0  0  0  0  0  0
  1  2  1  0
  1 49  1  0
  1 50  1  0
  1 51  1  0
  2  3  1  0
  2  4  1  0
  2 52  1  0
  3 53  1  0
  3 54  1  0
  3 55  1  0
  4  5  1  0
  4 56  1  0
  4 57  1  0
  5  6  1  0
  5 14  1  0
  5 58  1  6
  6  7  2  0
  6  8  1  0
  8  9  1  0
  8 12  1  0
  9 10  1  0
  9 59  1  0
  9 60  1  0
 10 11  1  0
 10 61  1  0
 10 62  1  0
 11 12  1  0
 11 63  1  0
 11 64  1  0
 12 13  1  0
 12 65  1  6
 13 14  1  0
 13 18  1  0
 13 43  1  1
 14 15  1  0
 15 16  2  0
 15 17  1  0
 17 18  1  0
 17 19  1  0
 17 22  1  6
 19 20  1  0
 19 21  1  0
 19 66  1  0
 20 67  1  0
 20 68  1  0
 20 69  1  0
 21 70  1  0
 21 71  1  0
 21 72  1  0
 22 23  1  0
 22 73  1  0
 23 24  2  0
 25 26  1  0
 25 40  1  0
 25 74  1  6
 25 23  1  0
 26 27  1  0
 26 75  1  0
 26 76  1  0
 27 28  1  0
 27 42  1  0
 28 29  1  0
 28 39  1  0
 28 77  1  6
 29 30  1  0
 29 78  1  0
 29 79  1  0
 30 31  2  0
 30 38  1  0
 31 32  1  0
 31 41  1  0
 32 33  1  0
 32 80  1  0
 33 34  1  0
 33 38  2  0
 34 35  2  0
 34 81  1  0
 35 36  1  0
 35 82  1  0
 36 37  2  0
 36 83  1  0
 37 38  1  0
 37 39  1  0
 39 40  2  0
 40 84  1  0
 42 85  1  0
 42 86  1  0
 42 87  1  0
 43 88  1  0
 44 45  1  0
 44 89  1  0
 44 90  1  0
 44 91  1  0
 45 46  2  0
 45 47  2  0
 45 48  1  0
 48 92  1  0
M  END
$$$$

     RDKit          2D

 29 29  0  0  0  0  0  0  0  0999 V2000
   -3.9931   -1.6474    0.0000 C   0  0  0  0  0  0  0  0  0  0  0  0
   -2.8047   -0.7321    0.0000 C   0  0  0  0  0  0  0  0  0  0  0  0
   -3.0032    0.7547    0.0000 C   0  0  0  0  0  0  0  0  0  0  0  0
   -1.8148    1.6700    0.0000 C   0  0  0  0  0  0  0  0  0  0  0  0
   -0.4280    1.0985    0.0000 C   0  0  0  0  0  0  0  0  0  0  0  0
   -0.2295   -0.3883    0.0000 C   0  0  0  0  0  0  0  0  0  0  0  0
   -1.4178   -1.3036    0.0000 C   0  0  0  0  0  0  0  0  0  0  0  0
    1.1574   -0.9598    0.0000 O   0  0  0  0  0  0  0  0  0  0  0  0
    2.3458   -0.0444    0.0000 P   0  0  0  0  0  0  0  0  0  0  0  0
    3.7326   -0.6159    0.0000 S   0  0  0  0  0  0  0  0  0  0  0  0
    2.5443   -1.5312    0.0000 O   0  0  0  0  0  0  0  0  0  0  0  0
    3.9311   -2.1027    0.0000 C   0  0  0  0  0  0  0  0  0  0  0  0
    3.5341    0.8709    0.0000 O   0  0  0  0  0  0  0  0  0  0  0  0
    3.3356    2.3577    0.0000 C   0  0  0  0  0  0  0  0  0  0  0  0
   -4.3901    1.3262    0.0000 N   0  0  0  0  0  0  0  0  0  0  0  0
   -5.5784    0.4109    0.0000 O   0  0  0  0  0  0  0  0  0  0  0  0
   -4.5886    2.8130    0.0000 O   0  0  0  0  0  0  0  0  0  0  0  0
   -4.9084   -0.4590    0.0000 H   0  0  0  0  0  0  0  0  0  0  0  0
   -3.0777   -2.8358    0.0000 H   0  0  0  0  0  0  0  0  0  0  0  0
   -5.1814   -2.5627    0.0000 H   0  0  0  0  0  0  0  0  0  0  0  0
   -2.0134    3.1568    0.0000 H   0  0  0  0  0  0  0  0  0  0  0  0
    0.7604    2.0139    0.0000 H   0  0  0  0  0  0  0  0  0  0  0  0
   -1.2193   -2.7904    0.0000 H   0  0  0  0  0  0  0  0  0  0  0  0
    3.3596   -3.4896    0.0000 H   0  0  0  0  0  0  0  0  0  0  0  0
    4.8212   -0.8954    0.0000 H   0  0  0  0  0  0  0  0  0  0  0  0
    5.3180   -2.6742    0.0000 H   0  0  0  0  0  0  0  0  0  0  0  0
    4.8224    2.5562    0.0000 H   0  0  0  0  0  0  0  0  0  0  0  0
    1.8488    2.1592    0.0000 H   0  0  0  0  0  0  0  0  0  0  0  0
    3.1371    3.8445    0.0000 H   0  0  0  0  0  0  0  0  0  0  0  0
  1  2  1  0
  1 18  1  0
  1 19  1  0
  1 20  1  0
  2  3  2  0
  2  7  1  0
  3  4  1  0
  3 15  1  0
  4  5  2  0
  4 21  1  0
  5  6  1  0
  5 22  1  0
  6  7  2  0
  6  8  1  0
  7 23  1  0
  8  9  1  0
  9 10  2  0
  9 11  1  0
  9 13  1  0
 11 12  1  0
 12 24  1  0
 12 25  1  0
 12 26  1  0
 13 14  1  0
 14 27  1  0
 14 28  1  0
 14 29  1  0
 15 16  2  0
 15 17  1  0
M  CHG  2  15   1  17  -1
M  END
$$$$

     RDKit          2D

 40 41  0  0  0  0  0  0  0  0999 V2000
    7.6587    0.6541    0.0000 C   0  0  0  0  0  0  0  0  0  0  0  0
    6.5754   -0.3834    0.0000 C   0  0  0  0  0  0  0  0  0  0  0  0
    5.4921   -1.4210    0.0000 O   0  0  0  0  0  0  0  0  0  0  0  0
    4.0519   -1.0016    0.0000 C   0  0  0  0  0  0  0  0  0  0  0  0
    3.8753    0.4879    0.0000 O   0  0  0  0  0  0  0  0  0  0  0  0
    2.9687   -2.0392    0.0000 C   0  0  0  0  0  0  0  0  0  0  0  0
    1.9311   -0.9559    0.0000 C   0  0  0  0  0  0  0  0  0  0  0  0
    0.8936    0.1274    0.0000 C   0  0  0  0  0  0  0  0  0  0  0  0
   -0.5634   -0.2295    0.0000 C   0  0  0  0  0  0  0  0  0  0  0  0
   -1.6009    0.8538    0.0000 C   0  0  0  0  0  0  0  0  0  0  0  0
   -1.1815    2.2939    0.0000 C   0  0  0  0  0  0  0  0  0  0  0  0
    0.2754    2.6508    0.0000 C   0  0  0  0  0  0  0  0  0  0  0  0
    1.3129    1.5676    0.0000 C   0  0  0  0  0  0  0  0  0  0  0  0
    2.7698    1.9245    0.0000 Cl  0  0  0  0  0  0  0  0  0  0  0  0
   -2.2191    3.3772    0.0000 F   0  0  0  0  0  0  0  0  0  0  0  0
   -3.0578    0.4968    0.0000 N   0  0  0  0  0  0  0  0  0  0  0  0
   -3.6254   -0.8916    0.0000 C   0  0  0  0  0  0  0  0  0  0  0  0
   -2.8358   -2.1669    0.0000 O   0  0  0  0  0  0  0  0  0  0  0  0
   -5.1213   -0.7808    0.0000 N   0  0  0  0  0  0  0  0  0  0  0  0
   -5.4783    0.6761    0.0000 C   0  0  0  0  0  0  0  0  0  0  0  0
   -4.2029    1.4657    0.0000 N   0  0  0  0  0  0  0  0  0  0  0  0
   -6.8667    1.2437    0.0000 C   0  0  0  0  0  0  0  0  0  0  0  0
   -6.0902   -1.9259    0.0000 C   0  0  0  0  0  0  0  0  0  0  0  0
   -4.9451   -2.8948    0.0000 F   0  0  0  0  0  0  0  0  0  0  0  0
   -7.3449   -1.1039    0.0000 F   0  0  0  0  0  0  0  0  0  0  0  0
    1.8854   -3.0767    0.0000 Cl  0  0  0  0  0  0  0  0  0  0  0  0
    6.6211    1.7374    0.0000 H   0  0  0  0  0  0  0  0  0  0  0  0
    8.6962   -0.4292    0.0000 H   0  0  0  0  0  0  0  0  0  0  0  0
    8.7420    1.6917    0.0000 H   0  0  0  0  0  0  0  0  0  0  0  0
    7.6129   -1.4667    0.0000 H   0  0  0  0  0  0  0  0  0  0  0  0
    5.5378    0.6998    0.0000 H   0  0  0  0  0  0  0  0  0  0  0  0
    4.0062   -3.1224    0.0000 H   0  0  0  0  0  0  0  0  0  0  0  0
    0.8478   -1.9934    0.0000 H   0  0  0  0  0  0  0  0  0  0  0  0
    2.8798    0.2060    0.0000 H   0  0  0  0  0  0  0  0  0  0  0  0
   -0.9827   -1.6697    0.0000 H   0  0  0  0  0  0  0  0  0  0  0  0
    0.6947    4.0910    0.0000 H   0  0  0  0  0  0  0  0  0  0  0  0
   -6.2991    2.6322    0.0000 H   0  0  0  0  0  0  0  0  0  0  0  0
   -7.5993   -0.0652    0.0000 H   0  0  0  0  0  0  0  0  0  0  0  0
   -8.2552    1.8113    0.0000 H   0  0  0  0  0  0  0  0  0  0  0  0
   -7.0591   -3.0710    0.0000 H   0  0  0  0  0  0  0  0  0  0  0  0
  1  2  1  0
  1 27  1  0
  1 28  1  0
  1 29  1  0
  2  3  1  0
  2 30  1  0
  2 31  1  0
  3  4  1  0
  4  5  2  0
  4  6  1  0
  6  7  1  0
  6 26  1  0
  6 32  1  1
  7  8  1  0
  7 33  1  0
  7 34  1  0
  8  9  2  0
  8 13  1  0
  9 10  1  0
  9 35  1  0
 10 11  2  0
 10 16  1  0
 11 12  1  0
 11 15  1  0
 12 13  2  0
 12 36  1  0
 13 14  1  0
 16 17  1  0
 16 21  1  0
 17 18  2  0
 17 19  1  0
 19 20  1  0
 19 23  1  0
 20 21  2  0
 20 22  1  0
 22 37  1  0
 22 38  1  0
 22 39  1  0
 23 24  1  0
 23 25  1  0
 23 40  1  0
M  END
$$$$

     RDKit          2D

 22 22  0  0  0  0  0  0  0  0999 V2000
   -1.9525   -1.5000    0.0000 C   0  0  0  0  0  0  0  0  0  0  0  0
   -0.6535   -0.7500    0.0000 C   0  0  0  0  0  0  0  0  0  0  0  0
   -0.6535    0.7500    0.0000 C   0  0  0  0  0  0  0  0  0  0  0  0
    0.6455    1.5000    0.0000 S   0  0  0  0  0  0  0  0  0  0  0  0
   -0.1714    2.7580    0.0000 O   0  0  0  0  0  0  0  0  0  0  0  0
    1.6097    2.6491    0.0000 O   0  0  0  0  0  0  0  0  0  0  0  0
    1.9446    0.7500    0.0000 C   0  0  0  0  0  0  0  0  0  0  0  0
    1.9446   -0.7500    0.0000 C   0  0  0  0  0  0  0  0  0  0  0  0
    0.6455   -1.5000    0.0000 S   0  0  0  0  0  0  0  0  0  0  0  0
    1.6097   -2.6491    0.0000 O   0  0  0  0  0  0  0  0  0  0  0  0
   -0.1714   -2.7580    0.0000 O   0  0  0  0  0  0  0  0  0  0  0  0
   -1.9525    1.5000    0.0000 C   0  0  0  0  0  0  0  0  0  0  0  0
   -2.6838   -0.5297    0.0000 H   0  0  0  0  0  0  0  0  0  0  0  0
   -1.3665   -2.8808    0.0000 H   0  0  0  0  0  0  0  0  0  0  0  0
   -3.2516   -2.2500    0.0000 H   0  0  0  0  0  0  0  0  0  0  0  0
    2.4576    2.1595    0.0000 H   0  0  0  0  0  0  0  0  0  0  0  0
    3.4218    0.4895    0.0000 H   0  0  0  0  0  0  0  0  0  0  0  0
    3.4218   -0.4895    0.0000 H   0  0  0  0  0  0  0  0  0  0  0  0
    2.4576   -2.1595    0.0000 H   0  0  0  0  0  0  0  0  0  0  0  0
   -1.3665    2.8808    0.0000 H   0  0  0  0  0  0  0  0  0  0  0  0
   -2.6838    0.5297    0.0000 H   0  0  0  0  0  0  0  0  0  0  0  0
   -3.2516    2.2500    0.0000 H   0  0  0  0  0  0  0  0  0  0  0  0
  1  2  1  0
  1 13  1  0
  1 14  1  0
  1 15  1  0
  2  3  2  0
  2  9  1  0
  3  4  1  0
  3 12  1  0
  4  5  2  0
  4  6  2  0
  4  7  1  0
  7  8  1  0
  7 16  1  0
  7 17  1  0
  8  9  1  0
  8 18  1  0
  8 19  1  0
  9 10  2  0
  9 11  2  0
 12 20  1  0
 12 21  1  0
 12 22  1  0
M  END
$$$$

     RDKit          2D

 34 36  0  0  0  0  0  0  0  0999 V2000
   -1.9401   -2.5382    0.0000 C   0  0  0  0  0  0  0  0  0  0  0  0
   -0.7528   -3.4549    0.0000 C   0  0  0  0  0  0  0  0  0  0  0  0
    0.6348   -2.8850    0.0000 C   0  0  0  0  0  0  0  0  0  0  0  0
    0.8350   -1.3984    0.0000 C   0  0  0  0  0  0  0  0  0  0  0  0
   -0.3523   -0.4817    0.0000 C   0  0  0  0  0  0  0  0  0  0  0  0
   -1.7399   -1.0516    0.0000 C   0  0  0  0  0  0  0  0  0  0  0  0
   -0.1521    1.0048    0.0000 C   0  0  0  0  0  0  0  0  0  0  0  0
    1.3344    0.8046    0.0000 C   0  0  0  0  0  0  0  0  0  0  0  0
    1.9043   -0.5829    0.0000 C   0  0  0  0  0  0  0  0  0  0  0  0
    3.3909   -0.7831    0.0000 C   0  0  0  0  0  0  0  0  0  0  0  0
    4.3076    0.4042    0.0000 C   0  0  0  0  0  0  0  0  0  0  0  0
    3.7377    1.7917    0.0000 C   0  0  0  0  0  0  0  0  0  0  0  0
    2.2511    1.9919    0.0000 C   0  0  0  0  0  0  0  0  0  0  0  0
    5.7942    0.2040    0.0000 F   0  0  0  0  0  0  0  0  0  0  0  0
   -1.6387    1.2050    0.0000 C   0  0  0  0  0  0  0  0  0  0  0  0
   -2.2086    2.5926    0.0000 C   0  0  0  0  0  0  0  0  0  0  0  0
   -3.6952    2.7928    0.0000 N   0  0  0  0  0  0  0  0  0  0  0  0
   -4.6119    1.6055    0.0000 C   0  0  0  0  0  0  0  0  0  0  0  0
   -4.0420    0.2179    0.0000 N   0  0  0  0  0  0  0  0  0  0  0  0
   -2.5554    0.0177    0.0000 C   0  0  0  0  0  0  0  0  0  0  0  0
    0.0481    2.4914    0.0000 O   0  0  0  0  0  0  0  0  0  0  0  0
    1.6237   -1.2830    0.0000 Cl  0  0  0  0  0  0  0  0  0  0  0  0
   -3.3276   -3.1081    0.0000 H   0  0  0  0  0  0  0  0  0  0  0  0
   -0.9530   -4.9415    0.0000 H   0  0  0  0  0  0  0  0  0  0  0  0
    1.8221   -3.8017    0.0000 H   0  0  0  0  0  0  0  0  0  0  0  0
   -3.1137   -0.4495    0.0000 H   0  0  0  0  0  0  0  0  0  0  0  0
    1.3022   -1.9567    0.0000 H   0  0  0  0  0  0  0  0  0  0  0  0
    3.9608   -2.1706    0.0000 H   0  0  0  0  0  0  0  0  0  0  0  0
    4.6544    2.9790    0.0000 H   0  0  0  0  0  0  0  0  0  0  0  0
    1.8546    3.4386    0.0000 H   0  0  0  0  0  0  0  0  0  0  0  0
   -1.2919    3.7799    0.0000 H   0  0  0  0  0  0  0  0  0  0  0  0
   -6.0984    1.8057    0.0000 H   0  0  0  0  0  0  0  0  0  0  0  0
   -2.3382   -1.4665    0.0000 H   0  0  0  0  0  0  0  0  0  0  0  0
    1.3558    3.2262    0.0000 H   0  0  0  0  0  0  0  0  0  0  0  0
  1  2  2  0
  1  6  1  0
  1 23  1  0
  2  3  1  0
  2 24  1  0
  3  4  2  0
  3 25  1  0
  4  5  1  0
  4 22  1  0
  5  6  2  0
  5  7  1  0
  6 26  1  0
  7  8  1  0
  7 15  1  0
  7 21  1  1
  8  9  2  0
  8 13  1  0
  9 10  1  0
  9 27  1  0
 10 11  2  0
 10 28  1  0
 11 12  1  0
 11 14  1  0
 12 13  2  0
 12 29  1  0
 13 30  1  0
 15 16  2  0
 15 20  1  0
 16 17  1  0
 16 31  1  0
 17 18  2  0
 18 19  1  0
 18 32  1  0
 19 20  2  0
 20 33  1  0
 21 34  1  0
M  END
$$$$

     RDKit          2D

 42 41  0  0  0  0  0  0  0  0999 V2000
   -4.5553    0.7581    0.0000 C   0  0  0  0  0  0  0  0  0  0  0  0
   -3.5958   -0.3948    0.0000 C   0  0  0  0  0  0  0  0  0  0  0  0
   -4.7487   -1.3544    0.0000 C   0  0  0  0  0  0  0  0  0  0  0  0
   -2.4429    0.5648    0.0000 C   0  0  0  0  0  0  0  0  0  0  0  0
   -1.2899    1.5244    0.0000 C   0  0  0  0  0  0  0  0  0  0  0  0
   -0.1370    2.4839    0.0000 C   0  0  0  0  0  0  0  0  0  0  0  0
   -0.3304    0.3714    0.0000 C   0  0  0  0  0  0  0  0  0  0  0  0
    0.6292   -0.7815    0.0000 C   0  0  0  0  0  0  0  0  0  0  0  0
    1.5888   -1.9344    0.0000 C   0  0  0  0  0  0  0  0  0  0  0  0
    0.4359   -2.8940    0.0000 C   0  0  0  0  0  0  0  0  0  0  0  0
    2.7417   -0.9748    0.0000 C   0  0  0  0  0  0  0  0  0  0  0  0
    3.8946   -0.0152    0.0000 C   0  0  0  0  0  0  0  0  0  0  0  0
    2.9350    1.1377    0.0000 C   0  0  0  0  0  0  0  0  0  0  0  0
    5.0475    0.9444    0.0000 C   0  0  0  0  0  0  0  0  0  0  0  0
    2.5484   -3.0873    0.0000 O   0  0  0  0  0  0  0  0  0  0  0  0
   -2.2495    2.6773    0.0000 O   0  0  0  0  0  0  0  0  0  0  0  0
   -5.3001    0.2787    0.0000 H   0  0  0  0  0  0  0  0  0  0  0  0
   -3.9487    1.4035    0.0000 H   0  0  0  0  0  0  0  0  0  0  0  0
   -5.5149    1.9110    0.0000 H   0  0  0  0  0  0  0  0  0  0  0  0
   -2.6362   -1.5477    0.0000 H   0  0  0  0  0  0  0  0  0  0  0  0
   -5.3941   -0.7477    0.0000 H   0  0  0  0  0  0  0  0  0  0  0  0
   -3.7891   -2.5073    0.0000 H   0  0  0  0  0  0  0  0  0  0  0  0
   -5.9016   -2.3140    0.0000 H   0  0  0  0  0  0  0  0  0  0  0  0
   -2.9223    1.3096    0.0000 H   0  0  0  0  0  0  0  0  0  0  0  0
   -1.4833   -0.5881    0.0000 H   0  0  0  0  0  0  0  0  0  0  0  0
   -0.9489    3.7452    0.0000 H   0  0  0  0  0  0  0  0  0  0  0  0
    0.8225    1.3310    0.0000 H   0  0  0  0  0  0  0  0  0  0  0  0
    1.0159    3.4435    0.0000 H   0  0  0  0  0  0  0  0  0  0  0  0
    1.2478   -4.1552    0.0000 H   0  0  0  0  0  0  0  0  0  0  0  0
   -0.5237   -1.7410    0.0000 H   0  0  0  0  0  0  0  0  0  0  0  0
   -0.7170   -3.8535    0.0000 H   0  0  0  0  0  0  0  0  0  0  0  0
    3.7013   -2.1277    0.0000 H   0  0  0  0  0  0  0  0  0  0  0  0
    2.0963   -0.3682    0.0000 H   0  0  0  0  0  0  0  0  0  0  0  0
    4.8542   -1.1681    0.0000 H   0  0  0  0  0  0  0  0  0  0  0  0
    3.9624    2.2307    0.0000 H   0  0  0  0  0  0  0  0  0  0  0  0
    2.1903    0.6583    0.0000 H   0  0  0  0  0  0  0  0  0  0  0  0
    1.9755    2.2906    0.0000 H   0  0  0  0  0  0  0  0  0  0  0  0
    4.2356    2.2056    0.0000 H   0  0  0  0  0  0  0  0  0  0  0  0
    6.0071   -0.2086    0.0000 H   0  0  0  0  0  0  0  0  0  0  0  0
    6.2004    1.9039    0.0000 H   0  0  0  0  0  0  0  0  0  0  0  0
    2.2051   -4.5475    0.0000 H   0  0  0  0  0  0  0  0  0  0  0  0
   -1.9063    4.1375    0.0000 H   0  0  0  0  0  0  0  0  0  0  0  0
  1  2  1  0
  1 17  1  0
  1 18  1  0
  1 19  1  0
  2  3  1  0
  2  4  1  0
  2 20  1  0
  3 21  1  0
  3 22  1  0
  3 23  1  0
  4  5  1  0
  4 24  1  0
  4 25  1  0
  5  6  1  0
  5  7  1  6
  5 16  1  0
  6 26  1  0
  6 27  1  0
  6 28  1  0
  7  8  3  0
  9  8  1  1
  9 10  1  0
  9 11  1  0
  9 15  1  0
 10 29  1  0
 10 30  1  0
 10 31  1  0
 11 12  1  0
 11 32  1  0
 11 33  1  0
 12 13  1  0
 12 14  1  0
 12 34  1  0
 13 35  1  0
 13 36  1  0
 13 37  1  0
 14 38  1  0
 14 39  1  0
 14 40  1  0
 15 41  1  0
 16 42  1  0
M  END
$$$$

     RDKit          2D

 38 38  0  0  0  0  0  0  0  0999 V2000
    8.1794    0.7414    0.0000 C   0  0  0  0  0  0  0  0  0  0  0  0
    6.7009    0.4885    0.0000 C   0  0  0  0  0  0  0  0  0  0  0  0
    5.2224    0.2355    0.0000 C   0  0  0  0  0  0  0  0  0  0  0  0
    3.7438   -0.0174    0.0000 C   0  0  0  0  0  0  0  0  0  0  0  0
    2.2653   -0.2703    0.0000 C   0  0  0  0  0  0  0  0  0  0  0  0
    0.7868   -0.5233    0.0000 C   0  0  0  0  0  0  0  0  0  0  0  0
   -0.6917   -0.7762    0.0000 C   0  0  0  0  0  0  0  0  0  0  0  0
   -2.1702   -1.0292    0.0000 C   0  0  0  0  0  0  0  0  0  0  0  0
   -3.6488   -1.2821    0.0000 C   0  0  0  0  0  0  0  0  0  0  0  0
   -5.1273   -1.5350    0.0000 O   0  0  0  0  0  0  0  0  0  0  0  0
   -6.0856   -0.3811    0.0000 C   0  0  0  0  0  0  0  0  0  0  0  0
   -7.0439    0.7729    0.0000 C   0  0  0  0  0  0  0  0  0  0  0  0
   -8.3391    1.5295    0.0000 C   0  0  0  0  0  0  0  0  0  0  0  0
   -8.3467    0.0295    0.0000 O   0  0  0  0  0  0  0  0  0  0  0  0
    8.4323   -0.7371    0.0000 H   0  0  0  0  0  0  0  0  0  0  0  0
    7.9265    2.2199    0.0000 H   0  0  0  0  0  0  0  0  0  0  0  0
    9.6579    0.9944    0.0000 H   0  0  0  0  0  0  0  0  0  0  0  0
    6.4479    1.9670    0.0000 H   0  0  0  0  0  0  0  0  0  0  0  0
    6.9538   -0.9900    0.0000 H   0  0  0  0  0  0  0  0  0  0  0  0
    5.4753   -1.2430    0.0000 H   0  0  0  0  0  0  0  0  0  0  0  0
    4.9694    1.7141    0.0000 H   0  0  0  0  0  0  0  0  0  0  0  0
    3.4909    1.4611    0.0000 H   0  0  0  0  0  0  0  0  0  0  0  0
    3.9968   -1.4959    0.0000 H   0  0  0  0  0  0  0  0  0  0  0  0
    2.5183   -1.7489    0.0000 H   0  0  0  0  0  0  0  0  0  0  0  0
    2.0124    1.2082    0.0000 H   0  0  0  0  0  0  0  0  0  0  0  0
    0.5339    0.9552    0.0000 H   0  0  0  0  0  0  0  0  0  0  0  0
    1.0397   -2.0018    0.0000 H   0  0  0  0  0  0  0  0  0  0  0  0
   -0.4388   -2.2547    0.0000 H   0  0  0  0  0  0  0  0  0  0  0  0
   -0.9447    0.7023    0.0000 H   0  0  0  0  0  0  0  0  0  0  0  0
   -2.4232    0.4494    0.0000 H   0  0  0  0  0  0  0  0  0  0  0  0
   -1.9173   -2.5077    0.0000 H   0  0  0  0  0  0  0  0  0  0  0  0
   -3.3958   -2.7606    0.0000 H   0  0  0  0  0  0  0  0  0  0  0  0
   -3.9017    0.1964    0.0000 H   0  0  0  0  0  0  0  0  0  0  0  0
   -4.9316    0.5773    0.0000 H   0  0  0  0  0  0  0  0  0  0  0  0
   -7.2396   -1.3394    0.0000 H   0  0  0  0  0  0  0  0  0  0  0  0
   -6.0739    1.9170    0.0000 H   0  0  0  0  0  0  0  0  0  0  0  0
   -9.8150    1.7975    0.0000 H   0  0  0  0  0  0  0  0  0  0  0  0
   -7.8189    2.9364    0.0000 H   0  0  0  0  0  0  0  0  0  0  0  0
  1  2  1  0
  1 15  1  0
  1 16  1  0
  1 17  1  0
  2  3  1  0
  2 18  1  0
  2 19  1  0
  3  4  1  0
  3 20  1  0
  3 21  1  0
  4  5  1  0
  4 22  1  0
  4 23  1  0
  5  6  1  0
  5 24  1  0
  5 25  1  0
  6  7  1  0
  6 26  1  0
  6 27  1  0
  7  8  1  0
  7 28  1  0
  7 29  1  0
  8  9  1  0
  8 30  1  0
  8 31  1  0
  9 10  1  0
  9 32  1  0
  9 33  1  0
 10 11  1  0
 11 12  1  0
 11 34  1  0
 11 35  1  0
 12 13  1  0
 12 14  1  0
 12 36  1  1
 13 14  1  0
 13 37  1  0
 13 38  1  0
M  END
$$$$

     RDKit          2D

 30 31  0  0  0  0  0  0  0  0999 V2000
    5.7500   -0.0000    0.0000 C   0  0  0  0  0  0  0  0  0  0  0  0
    5.0000   -1.2990    0.0000 C   0  0  0  0  0  0  0  0  0  0  0  0
    3.5000   -1.2990    0.0000 C   0  0  0  0  0  0  0  0  0  0  0  0
    2.7500   -0.0000    0.0000 C   0  0  0  0  0  0  0  0  0  0  0  0
    3.5000    1.2990    0.0000 C   0  0  0  0  0  0  0  0  0  0  0  0
    5.0000    1.2990    0.0000 C   0  0  0  0  0  0  0  0  0  0  0  0
    1.2500   -0.0000    0.0000 C   0  0  0  0  0  0  0  0  0  0  0  0
   -0.2500    0.0000    0.0000 C   0  0  0  0  0  0  0  0  0  0  0  0
   -1.7500    0.0000    0.0000 C   0  0  0  0  0  0  0  0  0  0  0  0
   -3.2500    0.0000    0.0000 C   0  0  0  0  0  0  0  0  0  0  0  0
   -4.0000    1.2990    0.0000 C   0  0  0  0  0  0  0  0  0  0  0  0
   -5.5000    1.2990    0.0000 C   0  0  0  0  0  0  0  0  0  0  0  0
   -6.2500    0.0000    0.0000 N   0  0  0  0  0  0  0  0  0  0  0  0
   -5.5000   -1.2990    0.0000 C   0  0  0  0  0  0  0  0  0  0  0  0
   -4.0000   -1.2990    0.0000 C   0  0  0  0  0  0  0  0  0  0  0  0
    7.2500   -0.0000    0.0000 H   0  0  0  0  0  0  0  0  0  0  0  0
    5.7500   -2.5981    0.0000 H   0  0  0  0  0  0  0  0  0  0  0  0
    2.7500   -2.5981    0.0000 H   0  0  0  0  0  0  0  0  0  0  0  0
    2.7500    2.5981    0.0000 H   0  0  0  0  0  0  0  0  0  0  0  0
    5.7500    2.5981    0.0000 H   0  0  0  0  0  0  0  0  0  0  0  0
    1.2500    1.5000    0.0000 H   0  0  0  0  0  0  0  0  0  0  0  0
    1.2500   -1.5000    0.0000 H   0  0  0  0  0  0  0  0  0  0  0  0
   -0.2500    1.5000    0.0000 H   0  0  0  0  0  0  0  0  0  0  0  0
   -0.2500   -1.5000    0.0000 H   0  0  0  0  0  0  0  0  0  0  0  0
   -1.7500   -1.5000    0.0000 H   0  0  0  0  0  0  0  0  0  0  0  0
   -1.7500    1.5000    0.0000 H   0  0  0  0  0  0  0  0  0  0  0  0
   -3.2500    2.5981    0.0000 H   0  0  0  0  0  0  0  0  0  0  0  0
   -6.2500    2.5981    0.0000 H   0  0  0  0  0  0  0  0  0  0  0  0
   -6.2500   -2.5981    0.0000 H   0  0  0  0  0  0  0  0  0  0  0  0
   -3.2500   -2.5981    0.0000 H   0  0  0  0  0  0  0  0  0  0  0  0
  1  2  2  0
  1  6  1  0
  1 16  1  0
  2  3  1  0
  2 17  1  0
  3  4  2  0
  3 18  1  0
  4  5  1  0
  4  7  1  0
  5  6  2  0
  5 19  1  0
  6 20  1  0
  7  8  1  0
  7 21  1  0
  7 22  1  0
  8  9  1  0
  8 23  1  0
  8 24  1  0
  9 10  1  0
  9 25  1  0
  9 26  1  0
 10 11  2  0
 10 15  1  0
 11 12  1  0
 11 27  1  0
 12 13  2  0
 12 28  1  0
 13 14  1  0
 14 15  2  0
 14 29  1  0
 15 30  1  0
M  END
$$$$

     RDKit          2D

 17 17  0  0  0  0  0  0  0  0999 V2000
    0.3392   -1.8216    0.0000 C   0  0  0  0  0  0  0  0  0  0  0  0
   -1.0752   -1.3221    0.0000 C   0  0  0  0  0  0  0  0  0  0  0  0
   -1.3498    0.1526    0.0000 C   0  0  0  0  0  0  0  0  0  0  0  0
   -0.2100    1.1277    0.0000 C   0  0  0  0  0  0  0  0  0  0  0  0
    1.2044    0.6281    0.0000 C   0  0  0  0  0  0  0  0  0  0  0  0
    1.4790   -0.8465    0.0000 C   0  0  0  0  0  0  0  0  0  0  0  0
    2.3442    1.6032    0.0000 N   0  0  0  0  0  0  0  0  0  0  0  0
    3.7586    1.1037    0.0000 C   0  0  0  0  0  0  0  0  0  0  0  0
    5.1730    0.6041    0.0000 O   0  0  0  0  0  0  0  0  0  0  0  0
   -2.7641    0.6521    0.0000 C   0  0  0  0  0  0  0  0  0  0  0  0
   -4.1785    1.1517    0.0000 F   0  0  0  0  0  0  0  0  0  0  0  0
   -2.2646    2.0665    0.0000 F   0  0  0  0  0  0  0  0  0  0  0  0
   -3.2637   -0.7622    0.0000 F   0  0  0  0  0  0  0  0  0  0  0  0
    0.6137   -3.2963    0.0000 H   0  0  0  0  0  0  0  0  0  0  0  0
   -2.2150   -2.2972    0.0000 H   0  0  0  0  0  0  0  0  0  0  0  0
   -0.4845    2.6023    0.0000 H   0  0  0  0  0  0  0  0  0  0  0  0
    2.8933   -1.3461    0.0000 H   0  0  0  0  0  0  0  0  0  0  0  0
  1  2  2  0
  1  6  1  0
  1 14  1  0
  2  3  1  0
  2 15  1  0
  3  4  2  0
  3 10  1  0
  4  5  1  0
  4 16  1  0
  5  6  2  0
  5  7  1  0
  6 17  1  0
  7  8  2  0
  8  9  2  0
 10 11  1  0
 10 12  1  0
 10 13  1  0
M  END
$$$$

     RDKit          2D

 31 32  0  0  0  0  0  0  0  0999 V2000
    5.5421    1.2866    0.0000 C   0  0  0  0  0  0  0  0  0  0  0  0
    4.0942    1.6785    0.0000 O   0  0  0  0  0  0  0  0  0  0  0  0
    3.0308    0.6205    0.0000 P   0  0  0  0  0  0  0  0  0  0  0  0
    3.4154   -0.8293    0.0000 S   0  0  0  0  0  0  0  0  0  0  0  0
    4.4787    0.2286    0.0000 O   0  0  0  0  0  0  0  0  0  0  0  0
    4.8633   -1.2212    0.0000 C   0  0  0  0  0  0  0  0  0  0  0  0
    1.9675   -0.4374    0.0000 S   0  0  0  0  0  0  0  0  0  0  0  0
    0.5196   -0.0455    0.0000 C   0  0  0  0  0  0  0  0  0  0  0  0
   -0.9283    0.3464    0.0000 N   0  0  0  0  0  0  0  0  0  0  0  0
   -1.9916   -0.7116    0.0000 C   0  0  0  0  0  0  0  0  0  0  0  0
   -1.6071   -2.1615    0.0000 O   0  0  0  0  0  0  0  0  0  0  0  0
   -3.4395   -0.3197    0.0000 C   0  0  0  0  0  0  0  0  0  0  0  0
   -4.5029   -1.3777    0.0000 C   0  0  0  0  0  0  0  0  0  0  0  0
   -5.9508   -0.9858    0.0000 C   0  0  0  0  0  0  0  0  0  0  0  0
   -6.3353    0.4641    0.0000 C   0  0  0  0  0  0  0  0  0  0  0  0
   -5.2720    1.5221    0.0000 C   0  0  0  0  0  0  0  0  0  0  0  0
   -3.8241    1.1302    0.0000 C   0  0  0  0  0  0  0  0  0  0  0  0
   -2.7608    2.1881    0.0000 N   0  0  0  0  0  0  0  0  0  0  0  0
   -1.3129    1.7962    0.0000 N   0  0  0  0  0  0  0  0  0  0  0  0
    5.5122   -0.2131    0.0000 H   0  0  0  0  0  0  0  0  0  0  0  0
    5.9340    2.7345    0.0000 H   0  0  0  0  0  0  0  0  0  0  0  0
    6.9900    0.8947    0.0000 H   0  0  0  0  0  0  0  0  0  0  0  0
    6.3132   -0.8367    0.0000 H   0  0  0  0  0  0  0  0  0  0  0  0
    3.5496   -1.9452    0.0000 H   0  0  0  0  0  0  0  0  0  0  0  0
    5.2479   -2.6711    0.0000 H   0  0  0  0  0  0  0  0  0  0  0  0
    0.1277   -1.4934    0.0000 H   0  0  0  0  0  0  0  0  0  0  0  0
    0.9115    1.4024    0.0000 H   0  0  0  0  0  0  0  0  0  0  0  0
   -4.1183   -2.8275    0.0000 H   0  0  0  0  0  0  0  0  0  0  0  0
   -7.0141   -2.0437    0.0000 H   0  0  0  0  0  0  0  0  0  0  0  0
   -7.7832    0.8560    0.0000 H   0  0  0  0  0  0  0  0  0  0  0  0
   -5.6566    2.9719    0.0000 H   0  0  0  0  0  0  0  0  0  0  0  0
  1  2  1  0
  1 20  1  0
  1 21  1  0
  1 22  1  0
  2  3  1  0
  3  4  2  0
  3  5  1  0
  3  7  1  0
  5  6  1  0
  6 23  1  0
  6 24  1  0
  6 25  1  0
  7  8  1  0
  8  9  1  0
  8 26  1  0
  8 27  1  0
  9 10  1  0
  9 19  1  0
 10 11  2  0
 10 12  1  0
 12 13  2  0
 12 17  1  0
 13 14  1  0
 13 28  1  0
 14 15  2  0
 14 29  1  0
 15 16  1  0
 15 30  1  0
 16 17  2  0
 16 31  1  0
 17 18  1  0
 18 19  2  0
M  END
$$$$

     RDKit          2D

 39 40  0  0  0  0  0  0  0  0999 V2000
   -4.6646   -2.8259    0.0000 C   0  0  0  0  0  0  0  0  0  0  0  0
   -3.4816   -1.9037    0.0000 C   0  0  0  0  0  0  0  0  0  0  0  0
   -2.2987   -0.9814    0.0000 C   0  0  0  0  0  0  0  0  0  0  0  0
   -1.1157   -0.0591    0.0000 N   0  0  0  0  0  0  0  0  0  0  0  0
    0.2745   -0.6224    0.0000 C   0  0  0  0  0  0  0  0  0  0  0  0
    1.6647   -1.1858    0.0000 C   0  0  0  0  0  0  0  0  0  0  0  0
    3.0549   -1.7491    0.0000 O   0  0  0  0  0  0  0  0  0  0  0  0
    4.2379   -0.8268    0.0000 C   0  0  0  0  0  0  0  0  0  0  0  0
    5.6281   -1.3902    0.0000 C   0  0  0  0  0  0  0  0  0  0  0  0
    6.8110   -0.4679    0.0000 C   0  0  0  0  0  0  0  0  0  0  0  0
    6.6038    1.0177    0.0000 C   0  0  0  0  0  0  0  0  0  0  0  0
    5.2136    1.5810    0.0000 C   0  0  0  0  0  0  0  0  0  0  0  0
    4.0306    0.6588    0.0000 C   0  0  0  0  0  0  0  0  0  0  0  0
    2.6404    1.2221    0.0000 Cl  0  0  0  0  0  0  0  0  0  0  0  0
    7.7868    1.9400    0.0000 Cl  0  0  0  0  0  0  0  0  0  0  0  0
    5.8353   -2.8758    0.0000 Cl  0  0  0  0  0  0  0  0  0  0  0  0
   -1.3229    1.4265    0.0000 C   0  0  0  0  0  0  0  0  0  0  0  0
   -0.1400    2.3488    0.0000 O   0  0  0  0  0  0  0  0  0  0  0  0
   -2.7131    1.9898    0.0000 N   0  0  0  0  0  0  0  0  0  0  0  0
   -3.0745    3.4457    0.0000 C   0  0  0  0  0  0  0  0  0  0  0  0
   -4.5707    3.5518    0.0000 C   0  0  0  0  0  0  0  0  0  0  0  0
   -5.1341    2.1616    0.0000 N   0  0  0  0  0  0  0  0  0  0  0  0
   -3.9860    1.1963    0.0000 C   0  0  0  0  0  0  0  0  0  0  0  0
   -5.5869   -1.6430    0.0000 H   0  0  0  0  0  0  0  0  0  0  0  0
   -3.7423   -4.0089    0.0000 H   0  0  0  0  0  0  0  0  0  0  0  0
   -5.8475   -3.7482    0.0000 H   0  0  0  0  0  0  0  0  0  0  0  0
   -2.5593   -3.0866    0.0000 H   0  0  0  0  0  0  0  0  0  0  0  0
   -4.3399   -1.0437    0.0000 H   0  0  0  0  0  0  0  0  0  0  0  0
   -1.3764   -2.1644    0.0000 H   0  0  0  0  0  0  0  0  0  0  0  0
   -3.2209    0.2016    0.0000 H   0  0  0  0  0  0  0  0  0  0  0  0
   -0.2888   -2.0126    0.0000 H   0  0  0  0  0  0  0  0  0  0  0  0
    0.8378    0.7677    0.0000 H   0  0  0  0  0  0  0  0  0  0  0  0
    1.1014   -2.5760    0.0000 H   0  0  0  0  0  0  0  0  0  0  0  0
    2.2280    0.2044    0.0000 H   0  0  0  0  0  0  0  0  0  0  0  0
    8.2012   -1.0312    0.0000 H   0  0  0  0  0  0  0  0  0  0  0  0
    5.0064    3.0667    0.0000 H   0  0  0  0  0  0  0  0  0  0  0  0
   -2.1091    4.5937    0.0000 H   0  0  0  0  0  0  0  0  0  0  0  0
   -5.3643    4.8247    0.0000 H   0  0  0  0  0  0  0  0  0  0  0  0
   -4.2191    0.0038    0.0000 H   0  0  0  0  0  0  0  0  0  0  0  0
  1  2  1  0
  1 24  1  0
  1 25  1  0
  1 26  1  0
  2  3  1  0
  2 27  1  0
  2 28  1  0
  3  4  1  0
  3 29  1  0
  3 30  1  0
  4  5  1  0
  4 17  1  0
  5  6  1  0
  5 31  1  0
  5 32  1  0
  6  7  1  0
  6 33  1  0
  6 34  1  0
  7  8  1  0
  8  9  2  0
  8 13  1  0
  9 10  1  0
  9 16  1  0
 10 11  2  0
 10 35  1  0
 11 12  1  0
 11 15  1  0
 12 13  2  0
 12 36  1  0
 13 14  1  0
 17 18  2  0
 17 19  1  0
 19 20  1  0
 19 23  1  0
 20 21  2  0
 20 37  1  0
 21 22  1  0
 21 38  1  0
 22 23  2  0
 23 39  1  0
M  END
$$$$

     RDKit          2D

 58 60  0  0  0  0  0  0  0  0999 V2000
   -3.5832   -4.9581    0.0000 C   0  0  0  0  0  0  0  0  0  0  0  0
   -2.6814   -3.7594    0.0000 C   0  0  0  0  0  0  0  0  0  0  0  0
   -1.7796   -2.5607    0.0000 C   0  0  0  0  0  0  0  0  0  0  0  0
   -0.8778   -1.3621    0.0000 C   0  0  0  0  0  0  0  0  0  0  0  0
    0.0240   -0.1634    0.0000 C   0  0  0  0  0  0  0  0  0  0  0  0
    1.1218   -1.1856    0.0000 C   0  0  0  0  0  0  0  0  0  0  0  0
    1.1230   -2.6856    0.0000 O   0  0  0  0  0  0  0  0  0  0  0  0
    2.4331   -0.4573    0.0000 N   0  0  0  0  0  0  0  0  0  0  0  0
    2.1458    1.0149    0.0000 N   0  0  0  0  0  0  0  0  0  0  0  0
    0.6568    1.1965    0.0000 C   0  0  0  0  0  0  0  0  0  0  0  0
    0.0939    2.5869    0.0000 O   0  0  0  0  0  0  0  0  0  0  0  0
    3.1679    2.1127    0.0000 C   0  0  0  0  0  0  0  0  0  0  0  0
    4.6297    1.7764    0.0000 C   0  0  0  0  0  0  0  0  0  0  0  0
    5.6519    2.8743    0.0000 C   0  0  0  0  0  0  0  0  0  0  0  0
    5.2122    4.3084    0.0000 C   0  0  0  0  0  0  0  0  0  0  0  0
    3.7504    4.6447    0.0000 C   0  0  0  0  0  0  0  0  0  0  0  0
    2.7282    3.5468    0.0000 C   0  0  0  0  0  0  0  0  0  0  0  0
    3.7931   -1.0902    0.0000 C   0  0  0  0  0  0  0  0  0  0  0  0
    3.9250   -2.5844    0.0000 C   0  0  0  0  0  0  0  0  0  0  0  0
    5.2850   -3.2173    0.0000 C   0  0  0  0  0  0  0  0  0  0  0  0
    6.5130   -2.3559    0.0000 C   0  0  0  0  0  0  0  0  0  0  0  0
    6.3811   -0.8617    0.0000 C   0  0  0  0  0  0  0  0  0  0  0  0
    5.0212   -0.2289    0.0000 C   0  0  0  0  0  0  0  0  0  0  0  0
   -1.2624    0.6081    0.0000 C   0  0  0  0  0  0  0  0  0  0  0  0
   -2.5488    1.3797    0.0000 O   0  0  0  0  0  0  0  0  0  0  0  0
   -3.8601    0.6514    0.0000 C   0  0  0  0  0  0  0  0  0  0  0  0
   -3.8851   -0.8484    0.0000 O   0  0  0  0  0  0  0  0  0  0  0  0
   -5.1465    1.4230    0.0000 C   0  0  0  0  0  0  0  0  0  0  0  0
   -6.4328    2.1945    0.0000 C   0  0  0  0  0  0  0  0  0  0  0  0
   -7.7192    2.9661    0.0000 C   0  0  0  0  0  0  0  0  0  0  0  0
   -7.6942    4.4659    0.0000 O   0  0  0  0  0  0  0  0  0  0  0  0
   -9.0305    2.2379    0.0000 O   0  0  0  0  0  0  0  0  0  0  0  0
   -4.7818   -4.0563    0.0000 H   0  0  0  0  0  0  0  0  0  0  0  0
   -2.3845   -5.8599    0.0000 H   0  0  0  0  0  0  0  0  0  0  0  0
   -4.4850   -6.1567    0.0000 H   0  0  0  0  0  0  0  0  0  0  0  0
   -1.4827   -4.6612    0.0000 H   0  0  0  0  0  0  0  0  0  0  0  0
   -3.8801   -2.8576    0.0000 H   0  0  0  0  0  0  0  0  0  0  0  0
   -2.9783   -1.6590    0.0000 H   0  0  0  0  0  0  0  0  0  0  0  0
   -0.5810   -3.4625    0.0000 H   0  0  0  0  0  0  0  0  0  0  0  0
   -2.1775   -0.6131    0.0000 H   0  0  0  0  0  0  0  0  0  0  0  0
    0.2020   -2.4033    0.0000 H   0  0  0  0  0  0  0  0  0  0  0  0
    5.0409    1.0935    0.0000 H   0  0  0  0  0  0  0  0  0  0  0  0
    7.1137    2.5380    0.0000 H   0  0  0  0  0  0  0  0  0  0  0  0
    6.2343    5.4062    0.0000 H   0  0  0  0  0  0  0  0  0  0  0  0
    3.3107    6.0788    0.0000 H   0  0  0  0  0  0  0  0  0  0  0  0
    1.2664    3.8831    0.0000 H   0  0  0  0  0  0  0  0  0  0  0  0
    2.6969   -3.4457    0.0000 H   0  0  0  0  0  0  0  0  0  0  0  0
    5.4169   -4.7114    0.0000 H   0  0  0  0  0  0  0  0  0  0  0  0
    7.8730   -2.9888    0.0000 H   0  0  0  0  0  0  0  0  0  0  0  0
    7.6092   -0.0004    0.0000 H   0  0  0  0  0  0  0  0  0  0  0  0
    5.1453    0.5586    0.0000 H   0  0  0  0  0  0  0  0  0  0  0  0
   -2.1850   -0.5746    0.0000 H   0  0  0  0  0  0  0  0  0  0  0  0
   -0.6534    1.9789    0.0000 H   0  0  0  0  0  0  0  0  0  0  0  0
   -5.9180    0.1366    0.0000 H   0  0  0  0  0  0  0  0  0  0  0  0
   -4.3749    2.7093    0.0000 H   0  0  0  0  0  0  0  0  0  0  0  0
   -7.2044    0.9082    0.0000 H   0  0  0  0  0  0  0  0  0  0  0  0
   -5.6613    3.4809    0.0000 H   0  0  0  0  0  0  0  0  0  0  0  0
  -10.3169    3.0094    0.0000 H   0  0  0  0  0  0  0  0  0  0  0  0
  1  2  1  0
  1 33  1  0
  1 34  1  0
  1 35  1  0
  2  3  1  0
  2 36  1  0
  2 37  1  0
  3  4  1  0
  3 38  1  0
  3 39  1  0
  4  5  1  0
  4 40  1  0
  4 41  1  0
  5  6  1  0
  5 10  1  0
  5 24  1  0
  6  7  2  0
  6  8  1  0
  8  9  1  0
  8 18  1  0
  9 10  1  0
  9 12  1  0
 10 11  2  0
 12 13  2  0
 12 17  1  0
 13 14  1  0
 13 42  1  0
 14 15  2  0
 14 43  1  0
 15 16  1  0
 15 44  1  0
 16 17  2  0
 16 45  1  0
 17 46  1  0
 18 19  2  0
 18 23  1  0
 19 20  1  0
 19 47  1  0
 20 21  2  0
 20 48  1  0
 21 22  1  0
 21 49  1  0
 22 23  2  0
 22 50  1  0
 23 51  1  0
 24 25  1  0
 24 52  1  0
 24 53  1  0
 25 26  1  0
 26 27  2  0
 26 28  1  0
 28 29  1  0
 28 54  1  0
 28 55  1  0
 29 30  1  0
 29 56  1  0
 29 57  1  0
 30 31  2  0
 30 32  1  0
 32 58  1  0
M  END
$$$$

     RDKit          2D

 52 53  0  0  0  0  0  0  0  0999 V2000
   -2.7021    1.6330    0.0000 C   0  0  0  0  0  0  0  0  0  0  0  0
   -1.2038    1.7041    0.0000 C   0  0  0  0  0  0  0  0  0  0  0  0
   -1.2750    3.2025    0.0000 C   0  0  0  0  0  0  0  0  0  0  0  0
   -1.1327    0.2058    0.0000 C   0  0  0  0  0  0  0  0  0  0  0  0
    0.3656    0.2770    0.0000 C   0  0  0  0  0  0  0  0  0  0  0  0
    0.2945    1.7753    0.0000 C   0  0  0  0  0  0  0  0  0  0  0  0
    0.4368   -1.2213    0.0000 C   0  0  0  0  0  0  0  0  0  0  0  0
    1.8639    0.3481    0.0000 C   0  0  0  0  0  0  0  0  0  0  0  0
    3.3622    0.4192    0.0000 O   0  0  0  0  0  0  0  0  0  0  0  0
    4.1730   -0.8428    0.0000 C   0  0  0  0  0  0  0  0  0  0  0  0
    3.4855   -2.1759    0.0000 O   0  0  0  0  0  0  0  0  0  0  0  0
    5.6713   -0.7716    0.0000 C   0  0  0  0  0  0  0  0  0  0  0  0
    6.4821   -2.0336    0.0000 C   0  0  0  0  0  0  0  0  0  0  0  0
    7.9804   -1.9625    0.0000 C   0  0  0  0  0  0  0  0  0  0  0  0
    8.6679   -0.6293    0.0000 C   0  0  0  0  0  0  0  0  0  0  0  0
    7.8572    0.6327    0.0000 C   0  0  0  0  0  0  0  0  0  0  0  0
    6.3589    0.5615    0.0000 C   0  0  0  0  0  0  0  0  0  0  0  0
   -2.6310    0.1347    0.0000 O   0  0  0  0  0  0  0  0  0  0  0  0
   -3.3185   -1.1985    0.0000 C   0  0  0  0  0  0  0  0  0  0  0  0
   -2.5078   -2.4605    0.0000 O   0  0  0  0  0  0  0  0  0  0  0  0
   -4.8169   -1.2696    0.0000 C   0  0  0  0  0  0  0  0  0  0  0  0
   -5.5044   -2.6027    0.0000 C   0  0  0  0  0  0  0  0  0  0  0  0
   -7.0027   -2.6739    0.0000 C   0  0  0  0  0  0  0  0  0  0  0  0
   -7.8135   -1.4119    0.0000 C   0  0  0  0  0  0  0  0  0  0  0  0
   -7.1259   -0.0787    0.0000 C   0  0  0  0  0  0  0  0  0  0  0  0
   -5.6276   -0.0076    0.0000 C   0  0  0  0  0  0  0  0  0  0  0  0
   -2.9554    3.1115    0.0000 H   0  0  0  0  0  0  0  0  0  0  0  0
   -2.8581    0.8512    0.0000 H   0  0  0  0  0  0  0  0  0  0  0  0
   -4.1980    1.7450    0.0000 H   0  0  0  0  0  0  0  0  0  0  0  0
    0.2327    2.1357    0.0000 H   0  0  0  0  0  0  0  0  0  0  0  0
    0.2035    3.4557    0.0000 H   0  0  0  0  0  0  0  0  0  0  0  0
   -2.7708    3.3145    0.0000 H   0  0  0  0  0  0  0  0  0  0  0  0
   -1.3461    4.7008    0.0000 H   0  0  0  0  0  0  0  0  0  0  0  0
   -1.2447   -1.2900    0.0000 H   0  0  0  0  0  0  0  0  0  0  0  0
   -1.1765    2.0688    0.0000 H   0  0  0  0  0  0  0  0  0  0  0  0
    1.7729    2.0285    0.0000 H   0  0  0  0  0  0  0  0  0  0  0  0
    0.4065    3.2711    0.0000 H   0  0  0  0  0  0  0  0  0  0  0  0
   -1.0417   -1.4746    0.0000 H   0  0  0  0  0  0  0  0  0  0  0  0
    1.9326   -1.3334    0.0000 H   0  0  0  0  0  0  0  0  0  0  0  0
    0.5079   -2.7197    0.0000 H   0  0  0  0  0  0  0  0  0  0  0  0
    1.9760    1.8439    0.0000 H   0  0  0  0  0  0  0  0  0  0  0  0
    2.1172   -1.1304    0.0000 H   0  0  0  0  0  0  0  0  0  0  0  0
    5.7945   -3.3668    0.0000 H   0  0  0  0  0  0  0  0  0  0  0  0
    8.7912   -3.2245    0.0000 H   0  0  0  0  0  0  0  0  0  0  0  0
   10.1663   -0.5582    0.0000 H   0  0  0  0  0  0  0  0  0  0  0  0
    8.5447    1.9658    0.0000 H   0  0  0  0  0  0  0  0  0  0  0  0
    5.5481    1.8235    0.0000 H   0  0  0  0  0  0  0  0  0  0  0  0
   -4.6936   -3.8648    0.0000 H   0  0  0  0  0  0  0  0  0  0  0  0
   -7.6903   -4.0070    0.0000 H   0  0  0  0  0  0  0  0  0  0  0  0
   -9.3118   -1.4830    0.0000 H   0  0  0  0  0  0  0  0  0  0  0  0
   -7.9367    1.1833    0.0000 H   0  0  0  0  0  0  0  0  0  0  0  0
   -5.1077    1.3994    0.0000 H   0  0  0  0  0  0  0  0  0  0  0  0
  1  2  1  0
  1 27  1  0
  1 28  1  0
  1 29  1  0
  2  3  1  0
  2  4  1  0
  2 30  1  0
  3 31  1  0
  3 32  1  0
  3 33  1  0
  4  5  1  0
  4 18  1  0
  4 34  1  6
  5  6  1  0
  5  7  1  0
  5  8  1  0
  6 35  1  0
  6 36  1  0
  6 37  1  0
  7 38  1  0
  7 39  1  0
  7 40  1  0
  8  9  1  0
  8 41  1  0
  8 42  1  0
  9 10  1  0
 10 11  2  0
 10 12  1  0
 12 13  2  0
 12 17  1  0
 13 14  1  0
 13 43  1  0
 14 15  2  0
 14 44  1  0
 15 16  1  0
 15 45  1  0
 16 17  2  0
 16 46  1  0
 17 47  1  0
 18 19  1  0
 19 20  2  0
 19 21  1  0
 21 22  2  0
 21 26  1  0
 22 23  1  0
 22 48  1  0
 23 24  2  0
 23 49  1  0
 24 25  1  0
 24 50  1  0
 25 26  2  0
 25 51  1  0
 26 52  1  0
M  END
$$$$

     RDKit          2D

 36 37  0  0  0  0  0  0  0  0999 V2000
   -5.4897    0.9014    0.0000 C   0  0  0  0  0  0  0  0  0  0  0  0
   -4.0840    1.4249    0.0000 C   0  0  0  0  0  0  0  0  0  0  0  0
   -2.6783    1.9484    0.0000 O   0  0  0  0  0  0  0  0  0  0  0  0
   -1.5221    0.9928    0.0000 P   0  0  0  0  0  0  0  0  0  0  0  0
   -1.7716   -0.4863    0.0000 S   0  0  0  0  0  0  0  0  0  0  0  0
   -2.9278    0.4693    0.0000 O   0  0  0  0  0  0  0  0  0  0  0  0
   -3.1773   -1.0098    0.0000 C   0  0  0  0  0  0  0  0  0  0  0  0
   -3.4268   -2.4889    0.0000 C   0  0  0  0  0  0  0  0  0  0  0  0
   -0.3659    0.0372    0.0000 S   0  0  0  0  0  0  0  0  0  0  0  0
    1.0398    0.5607    0.0000 C   0  0  0  0  0  0  0  0  0  0  0  0
    2.4455    1.0842    0.0000 N   0  0  0  0  0  0  0  0  0  0  0  0
    3.6952    0.2546    0.0000 C   0  0  0  0  0  0  0  0  0  0  0  0
    4.8703    1.1869    0.0000 C   0  0  0  0  0  0  0  0  0  0  0  0
    6.2653    0.6353    0.0000 C   0  0  0  0  0  0  0  0  0  0  0  0
    6.4851   -0.8485    0.0000 C   0  0  0  0  0  0  0  0  0  0  0  0
    5.3099   -1.7807    0.0000 C   0  0  0  0  0  0  0  0  0  0  0  0
    3.9150   -1.2292    0.0000 C   0  0  0  0  0  0  0  0  0  0  0  0
    7.8800   -1.4000    0.0000 Cl  0  0  0  0  0  0  0  0  0  0  0  0
    4.3469    2.5926    0.0000 O   0  0  0  0  0  0  0  0  0  0  0  0
    2.8482    2.5291    0.0000 C   0  0  0  0  0  0  0  0  0  0  0  0
    1.9160    3.7042    0.0000 O   0  0  0  0  0  0  0  0  0  0  0  0
   -5.2076   -0.2804    0.0000 H   0  0  0  0  0  0  0  0  0  0  0  0
   -6.0132    2.3071    0.0000 H   0  0  0  0  0  0  0  0  0  0  0  0
   -6.8954    0.3779    0.0000 H   0  0  0  0  0  0  0  0  0  0  0  0
   -3.9162   -0.0657    0.0000 H   0  0  0  0  0  0  0  0  0  0  0  0
   -4.6075    2.8306    0.0000 H   0  0  0  0  0  0  0  0  0  0  0  0
   -4.3911   -0.9553    0.0000 H   0  0  0  0  0  0  0  0  0  0  0  0
   -1.8025   -1.6098    0.0000 H   0  0  0  0  0  0  0  0  0  0  0  0
   -4.9059   -2.2394    0.0000 H   0  0  0  0  0  0  0  0  0  0  0  0
   -1.9477   -2.7384    0.0000 H   0  0  0  0  0  0  0  0  0  0  0  0
   -3.6763   -3.9680    0.0000 H   0  0  0  0  0  0  0  0  0  0  0  0
    1.5633   -0.8450    0.0000 H   0  0  0  0  0  0  0  0  0  0  0  0
    0.5163    1.9664    0.0000 H   0  0  0  0  0  0  0  0  0  0  0  0
    7.4404    1.5676    0.0000 H   0  0  0  0  0  0  0  0  0  0  0  0
    5.5297   -3.2645    0.0000 H   0  0  0  0  0  0  0  0  0  0  0  0
    2.7399   -2.1614    0.0000 H   0  0  0  0  0  0  0  0  0  0  0  0
  1  2  1  0
  1 22  1  0
  1 23  1  0
  1 24  1  0
  2  3  1  0
  2 25  1  0
  2 26  1  0
  3  4  1  0
  4  5  2  0
  4  6  1  0
  4  9  1  0
  6  7  1  0
  7  8  1  0
  7 27  1  0
  7 28  1  0
  8 29  1  0
  8 30  1  0
  8 31  1  0
  9 10  1  0
 10 11  1  0
 10 32  1  0
 10 33  1  0
 11 12  1  0
 11 20  1  0
 12 13  2  0
 12 17  1  0
 13 14  1  0
 13 19  1  0
 14 15  2  0
 14 34  1  0
 15 16  1  0
 15 18  1  0
 16 17  2  0
 16 35  1  0
 17 36  1  0
 19 20  1  0
 20 21  2  0
M  END
$$$$

     RDKit          2D

 16 16  0  0  0  0  0  0  0  0999 V2000
   -0.7500   -1.2990    0.0000 C   0  0  0  0  0  0  0  0  0  0  0  0
   -1.5000    0.0000    0.0000 C   0  0  0  0  0  0  0  0  0  0  0  0
   -0.7500    1.2990    0.0000 C   0  0  0  0  0  0  0  0  0  0  0  0
    0.7500    1.2990    0.0000 C   0  0  0  0  0  0  0  0  0  0  0  0
    1.5000   -0.0000    0.0000 C   0  0  0  0  0  0  0  0  0  0  0  0
    0.7500   -1.2990    0.0000 C   0  0  0  0  0  0  0  0  0  0  0  0
    1.5000   -2.5981    0.0000 Cl  0  0  0  0  0  0  0  0  0  0  0  0
    3.0000    0.0000    0.0000 N   0  0  0  0  0  0  0  0  0  0  0  0
    1.5000    2.5981    0.0000 Cl  0  0  0  0  0  0  0  0  0  0  0  0
   -3.0000    0.0000    0.0000 N   0  0  0  0  0  0  0  0  0  0  0  0
   -1.5000   -2.5981    0.0000 H   0  0  0  0  0  0  0  0  0  0  0  0
   -1.5000    2.5981    0.0000 H   0  0  0  0  0  0  0  0  0  0  0  0
    3.7500   -1.2990    0.0000 H   0  0  0  0  0  0  0  0  0  0  0  0
    3.7500    1.2990    0.0000 H   0  0  0  0  0  0  0  0  0  0  0  0
   -3.7500    1.2990    0.0000 H   0  0  0  0  0  0  0  0  0  0  0  0
   -3.7500   -1.2990    0.0000 H   0  0  0  0  0  0  0  0  0  0  0  0
  1  2  2  0
  1  6  1  0
  1 11  1  0
  2  3  1  0
  2 10  1  0
  3  4  2  0
  3 12  1  0
  4  5  1  0
  4  9  1  0
  5  6  2  0
  5  8  1  0
  6  7  1  0
  8 13  1  0
  8 14  1  0
 10 15  1  0
 10 16  1  0
M  END
$$$$

     RDKit          2D

 26 27  0  0  0  0  0  0  0  0999 V2000
   -2.5029   -1.0337    0.0000 C   0  0  0  0  0  0  0  0  0  0  0  0
   -3.1202    0.3334    0.0000 C   0  0  0  0  0  0  0  0  0  0  0  0
   -2.0108    1.3430    0.0000 C   0  0  0  0  0  0  0  0  0  0  0  0
   -0.7078    0.5999    0.0000 C   0  0  0  0  0  0  0  0  0  0  0  0
   -1.0119   -0.8690    0.0000 C   0  0  0  0  0  0  0  0  0  0  0  0
    0.7212    0.1439    0.0000 C   0  0  0  0  0  0  0  0  0  0  0  0
    1.8306    1.1535    0.0000 C   0  0  0  0  0  0  0  0  0  0  0  0
    3.2596    0.6975    0.0000 C   0  0  0  0  0  0  0  0  0  0  0  0
    3.5792   -0.7681    0.0000 C   0  0  0  0  0  0  0  0  0  0  0  0
    2.4698   -1.7776    0.0000 C   0  0  0  0  0  0  0  0  0  0  0  0
    1.0408   -1.3217    0.0000 C   0  0  0  0  0  0  0  0  0  0  0  0
    2.7894   -3.2432    0.0000 Cl  0  0  0  0  0  0  0  0  0  0  0  0
    1.5110    2.6190    0.0000 O   0  0  0  0  0  0  0  0  0  0  0  0
   -3.9270   -1.5047    0.0000 H   0  0  0  0  0  0  0  0  0  0  0  0
   -2.1832   -2.4992    0.0000 H   0  0  0  0  0  0  0  0  0  0  0  0
   -4.0083    1.5423    0.0000 H   0  0  0  0  0  0  0  0  0  0  0  0
   -4.4153   -0.4234    0.0000 H   0  0  0  0  0  0  0  0  0  0  0  0
   -1.1356    2.5612    0.0000 H   0  0  0  0  0  0  0  0  0  0  0  0
   -3.1308    2.3408    0.0000 H   0  0  0  0  0  0  0  0  0  0  0  0
   -0.1050    1.9734    0.0000 H   0  0  0  0  0  0  0  0  0  0  0  0
   -1.0040   -2.3690    0.0000 H   0  0  0  0  0  0  0  0  0  0  0  0
    0.1320   -1.2786    0.0000 H   0  0  0  0  0  0  0  0  0  0  0  0
    4.3690    1.7071    0.0000 H   0  0  0  0  0  0  0  0  0  0  0  0
    5.0082   -1.2240    0.0000 H   0  0  0  0  0  0  0  0  0  0  0  0
   -0.0686   -2.3312    0.0000 H   0  0  0  0  0  0  0  0  0  0  0  0
    2.6204    3.6286    0.0000 H   0  0  0  0  0  0  0  0  0  0  0  0
  1  2  1  0
  1  5  1  0
  1 14  1  0
  1 15  1  0
  2  3  1  0
  2 16  1  0
  2 17  1  0
  3  4  1  0
  3 18  1  0
  3 19  1  0
  4  5  1  0
  4  6  1  0
  4 20  1  0
  5 21  1  0
  5 22  1  0
  6  7  2  0
  6 11  1  0
  7  8  1  0
  7 13  1  0
  8  9  2  0
  8 23  1  0
  9 10  1  0
  9 24  1  0
 10 11  2  0
 10 12  1  0
 11 25  1  0
 13 26  1  0
M  END
$$$$

     RDKit          2D

 29 29  0  0  0  0  0  0  0  0999 V2000
    5.8966   -0.0000    0.0000 C   0  0  0  0  0  0  0  0  0  0  0  0
    4.3966   -0.0000    0.0000 C   0  0  0  0  0  0  0  0  0  0  0  0
    2.8966   -0.0000    0.0000 C   0  0  0  0  0  0  0  0  0  0  0  0
    1.3966   -0.0000    0.0000 C   0  0  0  0  0  0  0  0  0  0  0  0
   -0.1034    0.0000    0.0000 C   0  0  0  0  0  0  0  0  0  0  0  0
   -1.6034   -0.0000    0.0000 C   0  0  0  0  0  0  0  0  0  0  0  0
   -2.3534   -1.2990    0.0000 C   0  0  0  0  0  0  0  0  0  0  0  0
   -3.8534   -1.2990    0.0000 C   0  0  0  0  0  0  0  0  0  0  0  0
   -4.6034    0.0000    0.0000 C   0  0  0  0  0  0  0  0  0  0  0  0
   -3.8534    1.2990    0.0000 C   0  0  0  0  0  0  0  0  0  0  0  0
   -2.3534    1.2990    0.0000 C   0  0  0  0  0  0  0  0  0  0  0  0
   -6.1034    0.0000    0.0000 N   0  0  0  0  0  0  0  0  0  0  0  0
    5.8966   -1.5000    0.0000 H   0  0  0  0  0  0  0  0  0  0  0  0
    5.8966    1.5000    0.0000 H   0  0  0  0  0  0  0  0  0  0  0  0
    7.3966   -0.0000    0.0000 H   0  0  0  0  0  0  0  0  0  0  0  0
    4.3966    1.5000    0.0000 H   0  0  0  0  0  0  0  0  0  0  0  0
    4.3966   -1.5000    0.0000 H   0  0  0  0  0  0  0  0  0  0  0  0
    2.8966   -1.5000    0.0000 H   0  0  0  0  0  0  0  0  0  0  0  0
    2.8966    1.5000    0.0000 H   0  0  0  0  0  0  0  0  0  0  0  0
    1.3966    1.5000    0.0000 H   0  0  0  0  0  0  0  0  0  0  0  0
    1.3966   -1.5000    0.0000 H   0  0  0  0  0  0  0  0  0  0  0  0
   -0.1034   -1.5000    0.0000 H   0  0  0  0  0  0  0  0  0  0  0  0
   -0.1034    1.5000    0.0000 H   0  0  0  0  0  0  0  0  0  0  0  0
   -1.6034   -2.5981    0.0000 H   0  0  0  0  0  0  0  0  0  0  0  0
   -4.6034   -2.5981    0.0000 H   0  0  0  0  0  0  0  0  0  0  0  0
   -4.6034    2.5981    0.0000 H   0  0  0  0  0  0  0  0  0  0  0  0
   -1.6034    2.5981    0.0000 H   0  0  0  0  0  0  0  0  0  0  0  0
   -6.8534    1.2990    0.0000 H   0  0  0  0  0  0  0  0  0  0  0  0
   -6.8534   -1.2990    0.0000 H   0  0  0  0  0  0  0  0  0  0  0  0
  1  2  1  0
  1 13  1  0
  1 14  1  0
  1 15  1  0
  2  3  1  0
  2 16  1  0
  2 17  1  0
  3  4  1  0
  3 18  1  0
  3 19  1  0
  4  5  1  0
  4 20  1  0
  4 21  1  0
  5  6  1  0
  5 22  1  0
  5 23  1  0
  6  7  2  0
  6 11  1  0
  7  8  1  0
  7 24  1  0
  8  9  2  0
  8 25  1  0
  9 10  1  0
  9 12  1  0
 10 11  2  0
 10 26  1  0
 11 27  1  0
 12 28  1  0
 12 29  1  0
M  END
$$$$

     RDKit          2D

 26 27  0  0  0  0  0  0  0  0999 V2000
   -2.8030    1.6958    0.0000 C   0  0  0  0  0  0  0  0  0  0  0  0
   -4.0555    0.8704    0.0000 C   0  0  0  0  0  0  0  0  0  0  0  0
   -3.9669   -0.6270    0.0000 C   0  0  0  0  0  0  0  0  0  0  0  0
   -2.6259   -1.2990    0.0000 C   0  0  0  0  0  0  0  0  0  0  0  0
   -1.3734   -0.4736    0.0000 C   0  0  0  0  0  0  0  0  0  0  0  0
   -1.4619    1.0238    0.0000 C   0  0  0  0  0  0  0  0  0  0  0  0
   -0.0324   -1.1456    0.0000 C   0  0  0  0  0  0  0  0  0  0  0  0
    0.0562   -2.6430    0.0000 O   0  0  0  0  0  0  0  0  0  0  0  0
    1.2201   -0.3203    0.0000 C   0  0  0  0  0  0  0  0  0  0  0  0
    1.1316    1.1771    0.0000 C   0  0  0  0  0  0  0  0  0  0  0  0
    2.3841    2.0025    0.0000 C   0  0  0  0  0  0  0  0  0  0  0  0
    3.7251    1.3305    0.0000 C   0  0  0  0  0  0  0  0  0  0  0  0
    3.8137   -0.1669    0.0000 C   0  0  0  0  0  0  0  0  0  0  0  0
    2.5612   -0.9923    0.0000 C   0  0  0  0  0  0  0  0  0  0  0  0
    2.6497   -2.4896    0.0000 O   0  0  0  0  0  0  0  0  0  0  0  0
   -2.5374   -2.7964    0.0000 O   0  0  0  0  0  0  0  0  0  0  0  0
   -2.8915    3.1932    0.0000 H   0  0  0  0  0  0  0  0  0  0  0  0
   -5.3965    1.5424    0.0000 H   0  0  0  0  0  0  0  0  0  0  0  0
   -5.2194   -1.4523    0.0000 H   0  0  0  0  0  0  0  0  0  0  0  0
   -0.7123    1.6614    0.0000 H   0  0  0  0  0  0  0  0  0  0  0  0
    0.3120    1.7220    0.0000 H   0  0  0  0  0  0  0  0  0  0  0  0
    2.2956    3.4999    0.0000 H   0  0  0  0  0  0  0  0  0  0  0  0
    4.9776    2.1559    0.0000 H   0  0  0  0  0  0  0  0  0  0  0  0
    5.1547   -0.8389    0.0000 H   0  0  0  0  0  0  0  0  0  0  0  0
    3.9908   -3.1617    0.0000 H   0  0  0  0  0  0  0  0  0  0  0  0
   -1.1963   -3.4684    0.0000 H   0  0  0  0  0  0  0  0  0  0  0  0
  1  2  2  0
  1  6  1  0
  1 17  1  0
  2  3  1  0
  2 18  1  0
  3  4  2  0
  3 19  1  0
  4  5  1  0
  4 16  1  0
  5  6  2  0
  5  7  1  0
  6 20  1  0
  7  8  2  0
  7  9  1  0
  9 10  2  0
  9 14  1  0
 10 11  1  0
 10 21  1  0
 11 12  2  0
 11 22  1  0
 12 13  1  0
 12 23  1  0
 13 14  2  0
 13 24  1  0
 14 15  1  0
 15 25  1  0
 16 26  1  0
M  END
$$$$

     RDKit          2D

 16 16  0  0  0  0  0  0  0  0999 V2000
   -1.2990   -0.7500    0.0000 C   0  0  0  0  0  0  0  0  0  0  0  0
   -1.2990    0.7500    0.0000 C   0  0  0  0  0  0  0  0  0  0  0  0
   -0.0000    1.5000    0.0000 N   0  0  0  0  0  0  0  0  0  0  0  0
    1.2990    0.7500    0.0000 C   0  0  0  0  0  0  0  0  0  0  0  0
    1.2990   -0.7500    0.0000 C   0  0  0  0  0  0  0  0  0  0  0  0
    0.0000   -1.5000    0.0000 N   0  0  0  0  0  0  0  0  0  0  0  0
   -1.8121   -2.1595    0.0000 H   0  0  0  0  0  0  0  0  0  0  0  0
   -2.7762   -0.4895    0.0000 H   0  0  0  0  0  0  0  0  0  0  0  0
   -2.7762    0.4895    0.0000 H   0  0  0  0  0  0  0  0  0  0  0  0
   -1.8121    2.1595    0.0000 H   0  0  0  0  0  0  0  0  0  0  0  0
   -0.0000    3.0000    0.0000 H   0  0  0  0  0  0  0  0  0  0  0  0
    1.8121    2.1595    0.0000 H   0  0  0  0  0  0  0  0  0  0  0  0
    2.7762    0.4895    0.0000 H   0  0  0  0  0  0  0  0  0  0  0  0
    2.7762   -0.4895    0.0000 H   0  0  0  0  0  0  0  0  0  0  0  0
    1.8121   -2.1595    0.0000 H   0  0  0  0  0  0  0  0  0  0  0  0
    0.0000   -3.0000    0.0000 H   0  0  0  0  0  0  0  0  0  0  0  0
  1  2  1  0
  1  6  1  0
  1  7  1  0
  1  8  1  0
  2  3  1  0
  2  9  1  0
  2 10  1  0
  3  4  1  0
  3 11  1  0
  4  5  1  0
  4 12  1  0
  4 13  1  0
  5  6  1  0
  5 14  1  0
  5 15  1  0
  6 16  1  0
M  END
$$$$

     RDKit          2D

 27 28  0  0  0  0  0  0  0  0999 V2000
    4.6724   -0.7703    0.0000 C   0  0  0  0  0  0  0  0  0  0  0  0
    3.3042   -0.1553    0.0000 C   0  0  0  0  0  0  0  0  0  0  0  0
    2.0876   -1.0327    0.0000 C   0  0  0  0  0  0  0  0  0  0  0  0
    0.7195   -0.4178    0.0000 C   0  0  0  0  0  0  0  0  0  0  0  0
    0.5679    1.0745    0.0000 C   0  0  0  0  0  0  0  0  0  0  0  0
    1.7846    1.9519    0.0000 C   0  0  0  0  0  0  0  0  0  0  0  0
    3.1527    1.3370    0.0000 C   0  0  0  0  0  0  0  0  0  0  0  0
   -0.4972   -1.2952    0.0000 N   0  0  0  0  0  0  0  0  0  0  0  0
   -1.8653   -0.6802    0.0000 C   0  0  0  0  0  0  0  0  0  0  0  0
   -2.0168    0.8121    0.0000 C   0  0  0  0  0  0  0  0  0  0  0  0
   -3.3850    1.4271    0.0000 C   0  0  0  0  0  0  0  0  0  0  0  0
   -4.6016    0.5497    0.0000 C   0  0  0  0  0  0  0  0  0  0  0  0
   -4.4501   -0.9427    0.0000 C   0  0  0  0  0  0  0  0  0  0  0  0
   -3.0820   -1.5576    0.0000 C   0  0  0  0  0  0  0  0  0  0  0  0
    4.0575   -2.1384    0.0000 H   0  0  0  0  0  0  0  0  0  0  0  0
    5.2873    0.5979    0.0000 H   0  0  0  0  0  0  0  0  0  0  0  0
    6.0405   -1.3852    0.0000 H   0  0  0  0  0  0  0  0  0  0  0  0
    2.2391   -2.5251    0.0000 H   0  0  0  0  0  0  0  0  0  0  0  0
   -0.2738    1.5844    0.0000 H   0  0  0  0  0  0  0  0  0  0  0  0
    1.6331    3.4443    0.0000 H   0  0  0  0  0  0  0  0  0  0  0  0
    4.3694    2.2144    0.0000 H   0  0  0  0  0  0  0  0  0  0  0  0
   -0.3457   -2.7875    0.0000 H   0  0  0  0  0  0  0  0  0  0  0  0
   -1.2947    1.4808    0.0000 H   0  0  0  0  0  0  0  0  0  0  0  0
   -3.5365    2.9194    0.0000 H   0  0  0  0  0  0  0  0  0  0  0  0
   -5.9698    1.1646    0.0000 H   0  0  0  0  0  0  0  0  0  0  0  0
   -5.6668   -1.8200    0.0000 H   0  0  0  0  0  0  0  0  0  0  0  0
   -2.9304   -3.0499    0.0000 H   0  0  0  0  0  0  0  0  0  0  0  0
  1  2  1  0
  1 15  1  0
  1 16  1  0
  1 17  1  0
  2  3  2  0
  2  7  1  0
  3  4  1  0
  3 18  1  0
  4  5  2  0
  4  8  1  0
  5  6  1  0
  5 19  1  0
  6  7  2  0
  6 20  1  0
  7 21  1  0
  8  9  1  0
  8 22  1  0
  9 10  2  0
  9 14  1  0
 10 11  1  0
 10 23  1  0
 11 12  2  0
 11 24  1  0
 12 13  1  0
 12 25  1  0
 13 14  2  0
 13 26  1  0
 14 27  1  0
M  END
$$$$

     RDKit          2D

 36 38  0  0  0  0  0  0  0  0999 V2000
    4.5814    0.5309    0.0000 C   0  0  0  0  0  0  0  0  0  0  0  0
    3.4639   -0.4696    0.0000 C   0  0  0  0  0  0  0  0  0  0  0  0
    2.3463   -1.4701    0.0000 C   0  0  0  0  0  0  0  0  0  0  0  0
    1.4612   -2.6811    0.0000 C   0  0  0  0  0  0  0  0  0  0  0  0
    0.0359   -2.2135    0.0000 O   0  0  0  0  0  0  0  0  0  0  0  0
    0.0402   -0.7135    0.0000 C   0  0  0  0  0  0  0  0  0  0  0  0
    1.4681   -0.2541    0.0000 O   0  0  0  0  0  0  0  0  0  0  0  0
   -1.4521   -0.8661    0.0000 C   0  0  0  0  0  0  0  0  0  0  0  0
   -2.9443   -1.0186    0.0000 N   0  0  0  0  0  0  0  0  0  0  0  0
   -3.6980   -2.3155    0.0000 C   0  0  0  0  0  0  0  0  0  0  0  0
   -5.1643   -1.9995    0.0000 N   0  0  0  0  0  0  0  0  0  0  0  0
   -5.3169   -0.5073    0.0000 C   0  0  0  0  0  0  0  0  0  0  0  0
   -3.9448    0.0989    0.0000 N   0  0  0  0  0  0  0  0  0  0  0  0
   -0.2675    0.7546    0.0000 C   0  0  0  0  0  0  0  0  0  0  0  0
   -1.6928    1.2221    0.0000 C   0  0  0  0  0  0  0  0  0  0  0  0
   -2.0005    2.6902    0.0000 C   0  0  0  0  0  0  0  0  0  0  0  0
   -0.8829    3.6908    0.0000 C   0  0  0  0  0  0  0  0  0  0  0  0
    0.5424    3.2232    0.0000 C   0  0  0  0  0  0  0  0  0  0  0  0
    0.8500    1.7551    0.0000 C   0  0  0  0  0  0  0  0  0  0  0  0
   -1.1906    5.1589    0.0000 Cl  0  0  0  0  0  0  0  0  0  0  0  0
   -2.8104    0.2216    0.0000 Cl  0  0  0  0  0  0  0  0  0  0  0  0
    5.5819   -0.5866    0.0000 H   0  0  0  0  0  0  0  0  0  0  0  0
    3.5809    1.6485    0.0000 H   0  0  0  0  0  0  0  0  0  0  0  0
    5.6990    1.5314    0.0000 H   0  0  0  0  0  0  0  0  0  0  0  0
    4.4644   -1.5872    0.0000 H   0  0  0  0  0  0  0  0  0  0  0  0
    2.6927    0.6385    0.0000 H   0  0  0  0  0  0  0  0  0  0  0  0
    3.4581   -2.4770    0.0000 H   0  0  0  0  0  0  0  0  0  0  0  0
    0.8471   -4.0497    0.0000 H   0  0  0  0  0  0  0  0  0  0  0  0
    2.7581   -3.4348    0.0000 H   0  0  0  0  0  0  0  0  0  0  0  0
   -1.9102    0.4038    0.0000 H   0  0  0  0  0  0  0  0  0  0  0  0
   -1.2995   -2.3583    0.0000 H   0  0  0  0  0  0  0  0  0  0  0  0
   -3.0918   -3.6876    0.0000 H   0  0  0  0  0  0  0  0  0  0  0  0
   -6.6137    0.2464    0.0000 H   0  0  0  0  0  0  0  0  0  0  0  0
   -3.4257    3.1578    0.0000 H   0  0  0  0  0  0  0  0  0  0  0  0
    1.6599    4.2237    0.0000 H   0  0  0  0  0  0  0  0  0  0  0  0
    2.1745    1.4937    0.0000 H   0  0  0  0  0  0  0  0  0  0  0  0
  1  2  1  0
  1 22  1  0
  1 23  1  0
  1 24  1  0
  2  3  1  0
  2 25  1  0
  2 26  1  0
  3  4  1  0
  3  7  1  0
  3 27  1  1
  4  5  1  0
  4 28  1  0
  4 29  1  0
  5  6  1  0
  6  7  1  0
  6  8  1  6
  6 14  1  0
  8  9  1  0
  8 30  1  0
  8 31  1  0
  9 10  1  0
  9 13  1  0
 10 11  2  0
 10 32  1  0
 11 12  1  0
 12 13  2  0
 12 33  1  0
 14 15  2  0
 14 19  1  0
 15 16  1  0
 15 21  1  0
 16 17  2  0
 16 34  1  0
 17 18  1  0
 17 20  1  0
 18 19  2  0
 18 35  1  0
 19 36  1  0
M  END
$$$$

     RDKit          2D

 37 38  0  0  0  0  0  0  0  0999 V2000
   -5.5782    0.4025    0.0000 C   0  0  0  0  0  0  0  0  0  0  0  0
   -4.0825    0.5161    0.0000 C   0  0  0  0  0  0  0  0  0  0  0  0
   -2.5868    0.6298    0.0000 C   0  0  0  0  0  0  0  0  0  0  0  0
   -1.0911    0.7435    0.0000 C   0  0  0  0  0  0  0  0  0  0  0  0
    0.4046    0.8572    0.0000 C   0  0  0  0  0  0  0  0  0  0  0  0
    0.5182   -0.6385    0.0000 C   0  0  0  0  0  0  0  0  0  0  0  0
    0.6319   -2.1342    0.0000 N   0  0  0  0  0  0  0  0  0  0  0  0
   -0.5113   -3.1053    0.0000 C   0  0  0  0  0  0  0  0  0  0  0  0
    0.0590   -4.4927    0.0000 N   0  0  0  0  0  0  0  0  0  0  0  0
    1.5547   -4.3790    0.0000 C   0  0  0  0  0  0  0  0  0  0  0  0
    1.9087   -2.9214    0.0000 N   0  0  0  0  0  0  0  0  0  0  0  0
    0.2909    2.3528    0.0000 C   0  0  0  0  0  0  0  0  0  0  0  0
    0.1772    3.8485    0.0000 N   0  0  0  0  0  0  0  0  0  0  0  0
    1.9002    0.9708    0.0000 C   0  0  0  0  0  0  0  0  0  0  0  0
    2.7465   -0.2676    0.0000 C   0  0  0  0  0  0  0  0  0  0  0  0
    4.2422   -0.1540    0.0000 C   0  0  0  0  0  0  0  0  0  0  0  0
    4.8916    1.1982    0.0000 C   0  0  0  0  0  0  0  0  0  0  0  0
    4.0453    2.4366    0.0000 C   0  0  0  0  0  0  0  0  0  0  0  0
    2.5496    2.3230    0.0000 C   0  0  0  0  0  0  0  0  0  0  0  0
    6.3873    1.3118    0.0000 Cl  0  0  0  0  0  0  0  0  0  0  0  0
   -5.6919    1.8982    0.0000 H   0  0  0  0  0  0  0  0  0  0  0  0
   -5.4645   -1.0932    0.0000 H   0  0  0  0  0  0  0  0  0  0  0  0
   -7.0739    0.2888    0.0000 H   0  0  0  0  0  0  0  0  0  0  0  0
   -3.9688   -0.9795    0.0000 H   0  0  0  0  0  0  0  0  0  0  0  0
   -4.1962    2.0118    0.0000 H   0  0  0  0  0  0  0  0  0  0  0  0
   -2.7005    2.1255    0.0000 H   0  0  0  0  0  0  0  0  0  0  0  0
   -2.4731   -0.8659    0.0000 H   0  0  0  0  0  0  0  0  0  0  0  0
   -1.1322   -0.1413    0.0000 H   0  0  0  0  0  0  0  0  0  0  0  0
   -1.2048    2.2392    0.0000 H   0  0  0  0  0  0  0  0  0  0  0  0
   -0.3502   -0.8128    0.0000 H   0  0  0  0  0  0  0  0  0  0  0  0
    1.3914   -0.7871    0.0000 H   0  0  0  0  0  0  0  0  0  0  0  0
   -1.9689   -2.7512    0.0000 H   0  0  0  0  0  0  0  0  0  0  0  0
    2.5258   -5.5222    0.0000 H   0  0  0  0  0  0  0  0  0  0  0  0
    2.3631   -1.0661    0.0000 H   0  0  0  0  0  0  0  0  0  0  0  0
    5.0885   -1.3924    0.0000 H   0  0  0  0  0  0  0  0  0  0  0  0
    4.6947    3.7888    0.0000 H   0  0  0  0  0  0  0  0  0  0  0  0
    1.7034    3.5614    0.0000 H   0  0  0  0  0  0  0  0  0  0  0  0
  1  2  1  0
  1 21  1  0
  1 22  1  0
  1 23  1  0
  2  3  1  0
  2 24  1  0
  2 25  1  0
  3  4  1  0
  3 26  1  0
  3 27  1  0
  4  5  1  0
  4 28  1  0
  4 29  1  0
  5  6  1  0
  5 12  1  6
  5 14  1  0
  6  7  1  0
  6 30  1  0
  6 31  1  0
  7  8  1  0
  7 11  1  0
  8  9  2  0
  8 32  1  0
  9 10  1  0
 10 11  2  0
 10 33  1  0
 12 13  3  0
 14 15  2  0
 14 19  1  0
 15 16  1  0
 15 34  1  0
 16 17  2  0
 16 35  1  0
 17 18  1  0
 17 20  1  0
 18 19  2  0
 18 36  1  0
 19 37  1  0
M  END
$$$$

     RDKit          2D

 41 41  0  0  0  0  0  0  0  0999 V2000
   -3.3732    2.6621    0.0000 C   0  0  0  0  0  0  0  0  0  0  0  0
   -2.9707    1.2171    0.0000 C   0  0  0  0  0  0  0  0  0  0  0  0
   -2.5681   -0.2279    0.0000 C   0  0  0  0  0  0  0  0  0  0  0  0
   -3.6182   -1.2990    0.0000 C   0  0  0  0  0  0  0  0  0  0  0  0
   -3.2157   -2.7439    0.0000 C   0  0  0  0  0  0  0  0  0  0  0  0
   -1.7630   -3.1178    0.0000 C   0  0  0  0  0  0  0  0  0  0  0  0
   -0.7129   -2.0467    0.0000 C   0  0  0  0  0  0  0  0  0  0  0  0
   -1.1155   -0.6017    0.0000 C   0  0  0  0  0  0  0  0  0  0  0  0
   -0.0654    0.4694    0.0000 N   0  0  0  0  0  0  0  0  0  0  0  0
    1.3873    0.0955    0.0000 C   0  0  0  0  0  0  0  0  0  0  0  0
    1.0134   -1.3572    0.0000 C   0  0  0  0  0  0  0  0  0  0  0  0
    2.8400   -0.2784    0.0000 C   0  0  0  0  0  0  0  0  0  0  0  0
    4.2926   -0.6522    0.0000 O   0  0  0  0  0  0  0  0  0  0  0  0
    5.3427    0.4189    0.0000 C   0  0  0  0  0  0  0  0  0  0  0  0
   -0.4679    1.9143    0.0000 C   0  0  0  0  0  0  0  0  0  0  0  0
   -1.9206    2.2882    0.0000 O   0  0  0  0  0  0  0  0  0  0  0  0
    0.5822    2.9854    0.0000 C   0  0  0  0  0  0  0  0  0  0  0  0
    1.6323    4.0566    0.0000 Cl  0  0  0  0  0  0  0  0  0  0  0  0
    0.7397   -2.4206    0.0000 C   0  0  0  0  0  0  0  0  0  0  0  0
   -4.8182    2.2595    0.0000 H   0  0  0  0  0  0  0  0  0  0  0  0
   -1.9881    3.2378    0.0000 H   0  0  0  0  0  0  0  0  0  0  0  0
   -3.7758    4.1071    0.0000 H   0  0  0  0  0  0  0  0  0  0  0  0
   -1.4874    1.4405    0.0000 H   0  0  0  0  0  0  0  0  0  0  0  0
   -4.4157    0.8146    0.0000 H   0  0  0  0  0  0  0  0  0  0  0  0
   -5.0709   -0.9251    0.0000 H   0  0  0  0  0  0  0  0  0  0  0  0
   -4.2658   -3.8150    0.0000 H   0  0  0  0  0  0  0  0  0  0  0  0
   -1.3605   -4.5628    0.0000 H   0  0  0  0  0  0  0  0  0  0  0  0
    1.9355    1.4917    0.0000 H   0  0  0  0  0  0  0  0  0  0  0  0
   -0.0709   -1.2157    0.0000 H   0  0  0  0  0  0  0  0  0  0  0  0
    0.2215   -1.4484    0.0000 H   0  0  0  0  0  0  0  0  0  0  0  0
    1.0022   -2.8571    0.0000 H   0  0  0  0  0  0  0  0  0  0  0  0
    2.4661   -1.7310    0.0000 H   0  0  0  0  0  0  0  0  0  0  0  0
    3.2138    1.1743    0.0000 H   0  0  0  0  0  0  0  0  0  0  0  0
    6.4138   -0.6313    0.0000 H   0  0  0  0  0  0  0  0  0  0  0  0
    4.2716    1.4690    0.0000 H   0  0  0  0  0  0  0  0  0  0  0  0
    6.3928    1.4900    0.0000 H   0  0  0  0  0  0  0  0  0  0  0  0
    1.7733    2.0737    0.0000 H   0  0  0  0  0  0  0  0  0  0  0  0
   -0.4889    4.0356    0.0000 H   0  0  0  0  0  0  0  0  0  0  0  0
    1.4540   -1.1016    0.0000 H   0  0  0  0  0  0  0  0  0  0  0  0
    0.3659   -3.8732    0.0000 H   0  0  0  0  0  0  0  0  0  0  0  0
    2.1924   -2.7945    0.0000 H   0  0  0  0  0  0  0  0  0  0  0  0
  1  2  1  0
  1 20  1  0
  1 21  1  0
  1 22  1  0
  2  3  1  0
  2 23  1  0
  2 24  1  0
  3  4  2  0
  3  8  1  0
  4  5  1  0
  4 25  1  0
  5  6  2  0
  5 26  1  0
  6  7  1  0
  6 27  1  0
  7  8  2  0
  7 19  1  0
  8  9  1  0
  9 10  1  0
  9 15  1  0
 10 11  1  0
 10 12  1  0
 10 28  1  1
 11 29  1  0
 11 30  1  0
 11 31  1  0
 12 13  1  0
 12 32  1  0
 12 33  1  0
 13 14  1  0
 14 34  1  0
 14 35  1  0
 14 36  1  0
 15 16  2  0
 15 17  1  0
 17 18  1  0
 17 37  1  0
 17 38  1  0
 19 39  1  0
 19 40  1  0
 19 41  1  0
M  END
$$$$

     RDKit          2D

 47 48  0  0  1  0  0  0  0  0999 V2000
   -9.9078    1.2950    0.0000 C   0  0  0  0  0  0  0  0  0  0  0  0
   -8.5448    0.6687    0.0000 C   0  0  0  0  0  0  0  0  0  0  0  0
   -7.1818    0.0424    0.0000 C   0  0  0  0  0  0  0  0  0  0  0  0
   -5.8188   -0.5839    0.0000 C   0  0  0  0  0  0  0  0  0  0  0  0
   -4.4558   -1.2102    0.0000 O   0  0  0  0  0  0  0  0  0  0  0  0
   -3.2319   -0.3430    0.0000 C   0  0  0  0  0  0  0  0  0  0  0  0
   -3.3710    1.1505    0.0000 O   0  0  0  0  0  0  0  0  0  0  0  0
   -1.8690   -0.9693    0.0000 C   0  0  0  0  0  0  0  0  0  0  0  0
   -2.4953   -2.3323    0.0000 C   0  0  0  0  0  0  0  0  0  0  0  0
   -0.5060   -1.5956    0.0000 O   0  0  0  0  0  0  0  0  0  0  0  0
    0.7179   -0.7284    0.0000 C   0  0  0  0  0  0  0  0  0  0  0  0
    0.5788    0.7651    0.0000 C   0  0  0  0  0  0  0  0  0  0  0  0
    1.8027    1.6323    0.0000 C   0  0  0  0  0  0  0  0  0  0  0  0
    3.1657    1.0060    0.0000 C   0  0  0  0  0  0  0  0  0  0  0  0
    3.3048   -0.4875    0.0000 C   0  0  0  0  0  0  0  0  0  0  0  0
    2.0809   -1.3547    0.0000 C   0  0  0  0  0  0  0  0  0  0  0  0
    4.3896    1.8733    0.0000 O   0  0  0  0  0  0  0  0  0  0  0  0
    5.7526    1.2469    0.0000 C   0  0  0  0  0  0  0  0  0  0  0  0
    5.8917   -0.2466    0.0000 N   0  0  0  0  0  0  0  0  0  0  0  0
    7.2547   -0.8729    0.0000 C   0  0  0  0  0  0  0  0  0  0  0  0
    8.4786   -0.0057    0.0000 C   0  0  0  0  0  0  0  0  0  0  0  0
    8.3395    1.4879    0.0000 C   0  0  0  0  0  0  0  0  0  0  0  0
    6.9765    2.1142    0.0000 C   0  0  0  0  0  0  0  0  0  0  0  0
    9.8416   -0.6320    0.0000 C   0  0  0  0  0  0  0  0  0  0  0  0
   11.2046   -1.2583    0.0000 F   0  0  0  0  0  0  0  0  0  0  0  0
   10.4679    0.7310    0.0000 F   0  0  0  0  0  0  0  0  0  0  0  0
    9.2153   -1.9950    0.0000 F   0  0  0  0  0  0  0  0  0  0  0  0
   -9.2815    2.6580    0.0000 H   0  0  0  0  0  0  0  0  0  0  0  0
  -10.5341   -0.0680    0.0000 H   0  0  0  0  0  0  0  0  0  0  0  0
  -11.2708    1.9213    0.0000 H   0  0  0  0  0  0  0  0  0  0  0  0
   -9.1711   -0.6943    0.0000 H   0  0  0  0  0  0  0  0  0  0  0  0
   -7.9185    2.0317    0.0000 H   0  0  0  0  0  0  0  0  0  0  0  0
   -6.5555    1.4054    0.0000 H   0  0  0  0  0  0  0  0  0  0  0  0
   -7.8081   -1.3206    0.0000 H   0  0  0  0  0  0  0  0  0  0  0  0
   -6.4451   -1.9469    0.0000 H   0  0  0  0  0  0  0  0  0  0  0  0
   -5.1925    0.7791    0.0000 H   0  0  0  0  0  0  0  0  0  0  0  0
   -1.2426    0.3937    0.0000 H   0  0  0  0  0  0  0  0  0  0  0  0
   -1.1323   -2.9586    0.0000 H   0  0  0  0  0  0  0  0  0  0  0  0
   -3.9693   -2.0544    0.0000 H   0  0  0  0  0  0  0  0  0  0  0  0
   -3.1216   -3.6953    0.0000 H   0  0  0  0  0  0  0  0  0  0  0  0
   -0.7841    1.3914    0.0000 H   0  0  0  0  0  0  0  0  0  0  0  0
    1.6636    3.1259    0.0000 H   0  0  0  0  0  0  0  0  0  0  0  0
    4.6678   -1.1138    0.0000 H   0  0  0  0  0  0  0  0  0  0  0  0
    2.2200   -2.8483    0.0000 H   0  0  0  0  0  0  0  0  0  0  0  0
    7.3938   -2.3664    0.0000 H   0  0  0  0  0  0  0  0  0  0  0  0
    9.5634    2.3551    0.0000 H   0  0  0  0  0  0  0  0  0  0  0  0
    6.8374    3.6077    0.0000 H   0  0  0  0  0  0  0  0  0  0  0  0
  1  2  1  0
  1 28  1  0
  1 29  1  0
  1 30  1  0
  2  3  1  0
  2 31  1  0
  2 32  1  0
  3  4  1  0
  3 33  1  0
  3 34  1  0
  4  5  1  0
  4 35  1  0
  4 36  1  0
  5  6  1  0
  6  7  2  0
  6  8  1  0
  8  9  1  0
  8 10  1  0
  8 37  1  1
  9 38  1  0
  9 39  1  0
  9 40  1  0
 10 11  1  0
 11 12  2  0
 11 16  1  0
 12 13  1  0
 12 41  1  0
 13 14  2  0
 13 42  1  0
 14 15  1  0
 14 17  1  0
 15 16  2  0
 15 43  1  0
 16 44  1  0
 17 18  1  0
 18 19  2  0
 18 23  1  0
 19 20  1  0
 20 21  2  0
 20 45  1  0
 21 22  1  0
 21 24  1  0
 22 23  2  0
 22 46  1  0
 23 47  1  0
 24 25  1  0
 24 26  1  0
 24 27  1  0
M  END
$$$$

     RDKit          2D

 67 69  0  0  1  0  0  0  0  0999 V2000
  -10.1473   -0.6608    0.0000 C   0  0  0  0  0  0  0  0  0  0  0  0
   -8.6712   -0.9276    0.0000 C   0  0  0  0  0  0  0  0  0  0  0  0
   -7.7021    0.2173    0.0000 C   0  0  0  0  0  0  0  0  0  0  0  0
   -6.2260   -0.0495    0.0000 C   0  0  0  0  0  0  0  0  0  0  0  0
   -4.7499   -0.3163    0.0000 C   0  0  0  0  0  0  0  0  0  0  0  0
   -3.2716   -0.0622    0.0000 C   0  0  0  0  0  0  0  0  0  0  0  0
   -4.2308    1.0910    0.0000 O   0  0  0  0  0  0  0  0  0  0  0  0
   -2.7646   -1.4740    0.0000 C   0  0  0  0  0  0  0  0  0  0  0  0
   -1.9693    0.6822    0.0000 C   0  0  0  0  0  0  0  0  0  0  0  0
   -0.4910    0.9363    0.0000 C   0  0  0  0  0  0  0  0  0  0  0  0
    0.0281    2.3436    0.0000 C   0  0  0  0  0  0  0  0  0  0  0  0
   -0.9312    3.4968    0.0000 C   0  0  0  0  0  0  0  0  0  0  0  0
   -2.4095    3.2427    0.0000 C   0  0  0  0  0  0  0  0  0  0  0  0
   -2.9286    1.8354    0.0000 C   0  0  0  0  0  0  0  0  0  0  0  0
   -4.0818    0.8762    0.0000 C   0  0  0  0  0  0  0  0  0  0  0  0
   -4.3359    2.3545    0.0000 O   0  0  0  0  0  0  0  0  0  0  0  0
    1.3239    1.5880    0.0000 O   0  0  0  0  0  0  0  0  0  0  0  0
    1.3174    0.0880    0.0000 C   0  0  0  0  0  0  0  0  0  0  0  0
    0.2340   -0.9494    0.0000 O   0  0  0  0  0  0  0  0  0  0  0  0
    2.6132   -0.6675    0.0000 C   0  0  0  0  0  0  0  0  0  0  0  0
    3.9155    0.0769    0.0000 C   0  0  0  0  0  0  0  0  0  0  0  0
    5.2113   -0.6787    0.0000 C   0  0  0  0  0  0  0  0  0  0  0  0
    6.5135    0.0657    0.0000 C   0  0  0  0  0  0  0  0  0  0  0  0
    7.8093   -0.6899    0.0000 C   0  0  0  0  0  0  0  0  0  0  0  0
    9.1116    0.0545    0.0000 C   0  0  0  0  0  0  0  0  0  0  0  0
   10.4074   -0.7011    0.0000 C   0  0  0  0  0  0  0  0  0  0  0  0
   11.7096    0.0433    0.0000 C   0  0  0  0  0  0  0  0  0  0  0  0
   13.0054   -0.7123    0.0000 C   0  0  0  0  0  0  0  0  0  0  0  0
   12.9990   -2.2123    0.0000 O   0  0  0  0  0  0  0  0  0  0  0  0
   14.3077    0.0321    0.0000 O   0  0  0  0  0  0  0  0  0  0  0  0
   -0.4975   -0.5637    0.0000 O   0  0  0  0  0  0  0  0  0  0  0  0
    0.7983   -1.3193    0.0000 C   0  0  0  0  0  0  0  0  0  0  0  0
   -8.1642   -2.3393    0.0000 C   0  0  0  0  0  0  0  0  0  0  0  0
  -10.4141   -2.1368    0.0000 H   0  0  0  0  0  0  0  0  0  0  0  0
   -9.8804    0.8153    0.0000 H   0  0  0  0  0  0  0  0  0  0  0  0
  -11.6233   -0.3939    0.0000 H   0  0  0  0  0  0  0  0  0  0  0  0
   -8.2090    1.6291    0.0000 H   0  0  0  0  0  0  0  0  0  0  0  0
   -6.3109   -1.5471    0.0000 H   0  0  0  0  0  0  0  0  0  0  0  0
   -5.9592    1.4266    0.0000 H   0  0  0  0  0  0  0  0  0  0  0  0
   -4.9392   -1.8043    0.0000 H   0  0  0  0  0  0  0  0  0  0  0  0
   -4.1041   -2.1492    0.0000 H   0  0  0  0  0  0  0  0  0  0  0  0
   -1.3016   -1.1429    0.0000 H   0  0  0  0  0  0  0  0  0  0  0  0
   -2.2577   -2.8857    0.0000 H   0  0  0  0  0  0  0  0  0  0  0  0
   -1.2941   -0.6572    0.0000 H   0  0  0  0  0  0  0  0  0  0  0  0
    0.9415    0.4915    0.0000 H   0  0  0  0  0  0  0  0  0  0  0  0
    0.9972    3.4885    0.0000 H   0  0  0  0  0  0  0  0  0  0  0  0
   -1.4381    4.9086    0.0000 H   0  0  0  0  0  0  0  0  0  0  0  0
    0.3711    4.2412    0.0000 H   0  0  0  0  0  0  0  0  0  0  0  0
   -3.8856    3.5095    0.0000 H   0  0  0  0  0  0  0  0  0  0  0  0
   -2.4030    4.7427    0.0000 H   0  0  0  0  0  0  0  0  0  0  0  0
   -3.6746   -0.5675    0.0000 H   0  0  0  0  0  0  0  0  0  0  0  0
   -5.4935    0.3692    0.0000 H   0  0  0  0  0  0  0  0  0  0  0  0
    2.7896   -2.1571    0.0000 H   0  0  0  0  0  0  0  0  0  0  0  0
    3.9219    1.5768    0.0000 H   0  0  0  0  0  0  0  0  0  0  0  0
    5.2048   -2.1787    0.0000 H   0  0  0  0  0  0  0  0  0  0  0  0
    6.5200    1.5657    0.0000 H   0  0  0  0  0  0  0  0  0  0  0  0
    7.8029   -2.1899    0.0000 H   0  0  0  0  0  0  0  0  0  0  0  0
    9.1180    1.5545    0.0000 H   0  0  0  0  0  0  0  0  0  0  0  0
   10.4009   -2.2011    0.0000 H   0  0  0  0  0  0  0  0  0  0  0  0
   11.7161    1.5433    0.0000 H   0  0  0  0  0  0  0  0  0  0  0  0
   15.6035   -0.7235    0.0000 H   0  0  0  0  0  0  0  0  0  0  0  0
    0.0427   -2.6151    0.0000 H   0  0  0  0  0  0  0  0  0  0  0  0
    1.9682   -0.3804    0.0000 H   0  0  0  0  0  0  0  0  0  0  0  0
    1.9923   -2.2272    0.0000 H   0  0  0  0  0  0  0  0  0  0  0  0
   -9.5760   -2.8463    0.0000 H   0  0  0  0  0  0  0  0  0  0  0  0
   -6.7012   -2.0082    0.0000 H   0  0  0  0  0  0  0  0  0  0  0  0
   -7.6573   -3.7511    0.0000 H   0  0  0  0  0  0  0  0  0  0  0  0
  1  2  1  0
  1 34  1  0
  1 35  1  0
  1 36  1  0
  2  3  2  0
  2 33  1  0
  3  4  1  0
  3 37  1  0
  4  5  1  0
  4 38  1  0
  4 39  1  0
  5  6  1  0
  5  7  1  0
  5 40  1  6
  6  7  1  0
  6  8  1  1
  6  9  1  0
  8 41  1  0
  8 42  1  0
  8 43  1  0
  9 10  1  0
  9 14  1  0
  9 44  1  1
 10 11  1  0
 10 31  1  0
 10 45  1  6
 11 12  1  0
 11 17  1  0
 11 46  1  1
 12 13  1  0
 12 47  1  0
 12 48  1  0
 13 14  1  0
 13 49  1  0
 13 50  1  0
 14 15  1  0
 14 16  1  6
 15 16  1  0
 15 51  1  0
 15 52  1  0
 17 18  1  0
 18 19  2  0
 18 20  1  0
 20 21  2  0
 20 53  1  0
 21 22  1  0
 21 54  1  0
 22 23  2  0
 22 55  1  0
 23 24  1  0
 23 56  1  0
 24 25  2  0
 24 57  1  0
 25 26  1  0
 25 58  1  0
 26 27  2  0
 26 59  1  0
 27 28  1  0
 27 60  1  0
 28 29  2  0
 28 30  1  0
 30 61  1  0
 31 32  1  0
 32 62  1  0
 32 63  1  0
 32 64  1  0
 33 65  1  0
 33 66  1  0
 33 67  1  0
M  END
$$$$

     RDKit          2D

 29 30  0  0  0  0  0  0  0  0999 V2000
   -3.9347   -0.0074    0.0000 C   0  0  0  0  0  0  0  0  0  0  0  0
   -2.4356   -0.0602    0.0000 C   0  0  0  0  0  0  0  0  0  0  0  0
   -0.9366   -0.1130    0.0000 C   0  0  0  0  0  0  0  0  0  0  0  0
   -2.3828    1.4388    0.0000 C   0  0  0  0  0  0  0  0  0  0  0  0
   -2.4884   -1.5593    0.0000 N   0  0  0  0  0  0  0  0  0  0  0  0
   -1.2166   -2.3546    0.0000 S   0  0  0  0  0  0  0  0  0  0  0  0
    0.1080   -1.6508    0.0000 C   0  0  0  0  0  0  0  0  0  0  0  0
    1.4560   -2.3087    0.0000 N   0  0  0  0  0  0  0  0  0  0  0  0
    2.4983   -1.2300    0.0000 C   0  0  0  0  0  0  0  0  0  0  0  0
    3.9974   -1.2828    0.0000 C   0  0  0  0  0  0  0  0  0  0  0  0
    4.7927   -0.0110    0.0000 C   0  0  0  0  0  0  0  0  0  0  0  0
    4.0889    1.3136    0.0000 C   0  0  0  0  0  0  0  0  0  0  0  0
    2.5898    1.3664    0.0000 C   0  0  0  0  0  0  0  0  0  0  0  0
    1.7945    0.0946    0.0000 C   0  0  0  0  0  0  0  0  0  0  0  0
    0.3172   -0.1654    0.0000 S   0  0  0  0  0  0  0  0  0  0  0  0
   -4.0650    1.4869    0.0000 H   0  0  0  0  0  0  0  0  0  0  0  0
   -4.1698   -1.4889    0.0000 H   0  0  0  0  0  0  0  0  0  0  0  0
   -5.4338    0.0454    0.0000 H   0  0  0  0  0  0  0  0  0  0  0  0
   -0.7014    1.3684    0.0000 H   0  0  0  0  0  0  0  0  0  0  0  0
   -0.6842   -1.3015    0.0000 H   0  0  0  0  0  0  0  0  0  0  0  0
   -0.1568    0.0525    0.0000 H   0  0  0  0  0  0  0  0  0  0  0  0
   -0.8885    1.5692    0.0000 H   0  0  0  0  0  0  0  0  0  0  0  0
   -3.8643    1.6740    0.0000 H   0  0  0  0  0  0  0  0  0  0  0  0
   -2.3300    2.9379    0.0000 H   0  0  0  0  0  0  0  0  0  0  0  0
   -3.7174   -2.4193    0.0000 H   0  0  0  0  0  0  0  0  0  0  0  0
    4.7012   -2.6075    0.0000 H   0  0  0  0  0  0  0  0  0  0  0  0
    6.2917   -0.0638    0.0000 H   0  0  0  0  0  0  0  0  0  0  0  0
    4.8841    2.5855    0.0000 H   0  0  0  0  0  0  0  0  0  0  0  0
    1.8860    2.6911    0.0000 H   0  0  0  0  0  0  0  0  0  0  0  0
  1  2  1  0
  1 16  1  0
  1 17  1  0
  1 18  1  0
  2  3  1  0
  2  4  1  0
  2  5  1  0
  3 19  1  0
  3 20  1  0
  3 21  1  0
  4 22  1  0
  4 23  1  0
  4 24  1  0
  5  6  1  0
  5 25  1  0
  6  7  1  0
  7  8  2  0
  7 15  1  0
  8  9  1  0
  9 10  1  0
  9 14  2  0
 10 11  2  0
 10 26  1  0
 11 12  1  0
 11 27  1  0
 12 13  2  0
 12 28  1  0
 13 14  1  0
 13 29  1  0
 14 15  1  0
M  END
$$$$

     RDKit          2D

 32 33  0  0  0  0  0  0  0  0999 V2000
    3.2596   -0.9680    0.0000 C   0  0  0  0  0  0  0  0  0  0  0  0
    1.9445   -1.6895    0.0000 C   0  0  0  0  0  0  0  0  0  0  0  0
    0.6621   -0.9112    0.0000 C   0  0  0  0  0  0  0  0  0  0  0  0
    0.6949    0.5884    0.0000 N   0  0  0  0  0  0  0  0  0  0  0  0
   -0.3976    1.6162    0.0000 C   0  0  0  0  0  0  0  0  0  0  0  0
    0.2423    2.9729    0.0000 N   0  0  0  0  0  0  0  0  0  0  0  0
    1.7303    2.7835    0.0000 C   0  0  0  0  0  0  0  0  0  0  0  0
    2.0100    1.3098    0.0000 C   0  0  0  0  0  0  0  0  0  0  0  0
    3.2924    0.5316    0.0000 C   0  0  0  0  0  0  0  0  0  0  0  0
   -0.8090   -0.6185    0.0000 C   0  0  0  0  0  0  0  0  0  0  0  0
   -1.7981   -1.7463    0.0000 C   0  0  0  0  0  0  0  0  0  0  0  0
   -3.2693   -1.4536    0.0000 C   0  0  0  0  0  0  0  0  0  0  0  0
   -3.7514   -0.0331    0.0000 C   0  0  0  0  0  0  0  0  0  0  0  0
   -2.7623    1.0946    0.0000 C   0  0  0  0  0  0  0  0  0  0  0  0
   -1.2911    0.8019    0.0000 C   0  0  0  0  0  0  0  0  0  0  0  0
   -5.2225    0.2596    0.0000 C   0  0  0  0  0  0  0  0  0  0  0  0
   -6.6937    0.5523    0.0000 N   0  0  0  0  0  0  0  0  0  0  0  0
   -0.7500    4.8760    0.0000 Cl  0  0  0  0  0  0  0  0  0  0  0  0
    4.7421   -0.7399    0.0000 H   0  0  0  0  0  0  0  0  0  0  0  0
    3.7417   -2.3885    0.0000 H   0  0  0  0  0  0  0  0  0  0  0  0
    2.8833   -2.8593    0.0000 H   0  0  0  0  0  0  0  0  0  0  0  0
    0.9554   -2.8172    0.0000 H   0  0  0  0  0  0  0  0  0  0  0  0
    0.1184   -2.3092    0.0000 H   0  0  0  0  0  0  0  0  0  0  0  0
   -1.8952    1.7014    0.0000 H   0  0  0  0  0  0  0  0  0  0  0  0
    2.7582    3.8760    0.0000 H   0  0  0  0  0  0  0  0  0  0  0  0
    3.8361    1.9296    0.0000 H   0  0  0  0  0  0  0  0  0  0  0  0
    4.7635    0.2389    0.0000 H   0  0  0  0  0  0  0  0  0  0  0  0
   -1.3160   -3.1667    0.0000 H   0  0  0  0  0  0  0  0  0  0  0  0
   -4.2583   -2.5813    0.0000 H   0  0  0  0  0  0  0  0  0  0  0  0
   -3.2444    2.5150    0.0000 H   0  0  0  0  0  0  0  0  0  0  0  0
   -0.9261    1.5106    0.0000 H   0  0  0  0  0  0  0  0  0  0  0  0
    0.7500    4.8760    0.0000 H   0  0  0  0  0  0  0  0  0  0  0  0
  1  2  1  0
  1  9  1  0
  1 19  1  0
  1 20  1  0
  2  3  1  0
  2 21  1  0
  2 22  1  0
  3  4  1  0
  3 10  1  0
  3 23  1  1
  4  5  1  0
  4  8  1  0
  5  6  2  0
  5 24  1  0
  6  7  1  0
  7  8  2  0
  7 25  1  0
  8  9  1  0
  9 26  1  0
  9 27  1  0
 10 11  2  0
 10 15  1  0
 11 12  1  0
 11 28  1  0
 12 13  2  0
 12 29  1  0
 13 14  1  0
 13 16  1  0
 14 15  2  0
 14 30  1  0
 15 31  1  0
 16 17  3  0
 18 32  1  0
M  END
$$$$

     RDKit          2D

 41 42  0  0  0  0  0  0  0  0999 V2000
   -0.5890   -3.3522    0.0000 C   0  0  0  0  0  0  0  0  0  0  0  0
   -1.8719   -2.5748    0.0000 C   0  0  0  0  0  0  0  0  0  0  0  0
   -3.1547   -1.7974    0.0000 C   0  0  0  0  0  0  0  0  0  0  0  0
   -2.6493   -3.8577    0.0000 C   0  0  0  0  0  0  0  0  0  0  0  0
   -3.4267   -5.1405    0.0000 N   0  0  0  0  0  0  0  0  0  0  0  0
   -1.0945   -1.2920    0.0000 C   0  0  0  0  0  0  0  0  0  0  0  0
   -1.8167    0.0226    0.0000 C   0  0  0  0  0  0  0  0  0  0  0  0
   -1.0393    1.3055    0.0000 C   0  0  0  0  0  0  0  0  0  0  0  0
    0.4603    1.2736    0.0000 C   0  0  0  0  0  0  0  0  0  0  0  0
    1.1826   -0.0410    0.0000 C   0  0  0  0  0  0  0  0  0  0  0  0
    0.4052   -1.3238    0.0000 C   0  0  0  0  0  0  0  0  0  0  0  0
    2.6823   -0.0728    0.0000 C   0  0  0  0  0  0  0  0  0  0  0  0
    4.1819   -0.1047    0.0000 N   0  0  0  0  0  0  0  0  0  0  0  0
    5.0891    1.0899    0.0000 C   0  0  0  0  0  0  0  0  0  0  0  0
    6.5056    0.5962    0.0000 N   0  0  0  0  0  0  0  0  0  0  0  0
    6.4737   -0.9035    0.0000 C   0  0  0  0  0  0  0  0  0  0  0  0
    5.0376   -1.3366    0.0000 N   0  0  0  0  0  0  0  0  0  0  0  0
   -1.7616    2.6201    0.0000 C   0  0  0  0  0  0  0  0  0  0  0  0
   -3.0763    1.8979    0.0000 C   0  0  0  0  0  0  0  0  0  0  0  0
   -0.4469    3.3424    0.0000 C   0  0  0  0  0  0  0  0  0  0  0  0
   -2.4839    3.9348    0.0000 C   0  0  0  0  0  0  0  0  0  0  0  0
   -3.2061    5.2495    0.0000 N   0  0  0  0  0  0  0  0  0  0  0  0
   -1.3664   -4.6351    0.0000 H   0  0  0  0  0  0  0  0  0  0  0  0
    0.0397   -2.7283    0.0000 H   0  0  0  0  0  0  0  0  0  0  0  0
    0.6938   -4.1296    0.0000 H   0  0  0  0  0  0  0  0  0  0  0  0
   -3.9321   -3.0803    0.0000 H   0  0  0  0  0  0  0  0  0  0  0  0
   -2.8926   -0.9514    0.0000 H   0  0  0  0  0  0  0  0  0  0  0  0
   -4.4375   -1.0200    0.0000 H   0  0  0  0  0  0  0  0  0  0  0  0
   -2.6137    0.0396    0.0000 H   0  0  0  0  0  0  0  0  0  0  0  0
    1.2377    2.5565    0.0000 H   0  0  0  0  0  0  0  0  0  0  0  0
    0.8317   -2.1001    0.0000 H   0  0  0  0  0  0  0  0  0  0  0  0
    2.7141    1.4268    0.0000 H   0  0  0  0  0  0  0  0  0  0  0  0
    2.6504   -1.5725    0.0000 H   0  0  0  0  0  0  0  0  0  0  0  0
    4.6560    2.5260    0.0000 H   0  0  0  0  0  0  0  0  0  0  0  0
    7.6683   -1.8107    0.0000 H   0  0  0  0  0  0  0  0  0  0  0  0
   -3.7985    3.2125    0.0000 H   0  0  0  0  0  0  0  0  0  0  0  0
   -2.7318    0.5926    0.0000 H   0  0  0  0  0  0  0  0  0  0  0  0
   -4.3909    1.1756    0.0000 H   0  0  0  0  0  0  0  0  0  0  0  0
   -1.1692    4.6571    0.0000 H   0  0  0  0  0  0  0  0  0  0  0  0
    0.5720    2.2416    0.0000 H   0  0  0  0  0  0  0  0  0  0  0  0
    0.8677    4.0647    0.0000 H   0  0  0  0  0  0  0  0  0  0  0  0
  1  2  1  0
  1 23  1  0
  1 24  1  0
  1 25  1  0
  2  3  1  0
  2  4  1  0
  2  6  1  0
  3 26  1  0
  3 27  1  0
  3 28  1  0
  4  5  3  0
  6  7  2  0
  6 11  1  0
  7  8  1  0
  7 29  1  0
  8  9  2  0
  8 18  1  0
  9 10  1  0
  9 30  1  0
 10 11  2  0
 10 12  1  0
 11 31  1  0
 12 13  1  0
 12 32  1  0
 12 33  1  0
 13 14  1  0
 13 17  1  0
 14 15  2  0
 14 34  1  0
 15 16  1  0
 16 17  2  0
 16 35  1  0
 18 19  1  0
 18 20  1  0
 18 21  1  0
 19 36  1  0
 19 37  1  0
 19 38  1  0
 20 39  1  0
 20 40  1  0
 20 41  1  0
 21 22  3  0
M  END
$$$$

     RDKit          2D

 27 28  0  0  0  0  0  0  0  0999 V2000
    3.8971   -1.0717    0.0000 C   0  0  0  0  0  0  0  0  0  0  0  0
    2.5981   -1.8217    0.0000 C   0  0  0  0  0  0  0  0  0  0  0  0
    1.2990   -1.0717    0.0000 C   0  0  0  0  0  0  0  0  0  0  0  0
    1.2990    0.4283    0.0000 C   0  0  0  0  0  0  0  0  0  0  0  0
    2.5981    1.1783    0.0000 C   0  0  0  0  0  0  0  0  0  0  0  0
    3.8971    0.4283    0.0000 C   0  0  0  0  0  0  0  0  0  0  0  0
    5.1962    1.1783    0.0000 N   0  0  0  0  0  0  0  0  0  0  0  0
    0.0000   -1.8217    0.0000 O   0  0  0  0  0  0  0  0  0  0  0  0
   -1.2990   -1.0717    0.0000 C   0  0  0  0  0  0  0  0  0  0  0  0
   -1.2990    0.4283    0.0000 C   0  0  0  0  0  0  0  0  0  0  0  0
   -2.5981    1.1783    0.0000 C   0  0  0  0  0  0  0  0  0  0  0  0
   -3.8971    0.4283    0.0000 C   0  0  0  0  0  0  0  0  0  0  0  0
   -3.8971   -1.0717    0.0000 C   0  0  0  0  0  0  0  0  0  0  0  0
   -2.5981   -1.8217    0.0000 C   0  0  0  0  0  0  0  0  0  0  0  0
   -5.1962    1.1783    0.0000 N   0  0  0  0  0  0  0  0  0  0  0  0
    5.1962   -1.8217    0.0000 H   0  0  0  0  0  0  0  0  0  0  0  0
    2.5981   -3.3217    0.0000 H   0  0  0  0  0  0  0  0  0  0  0  0
    0.5131    1.0206    0.0000 H   0  0  0  0  0  0  0  0  0  0  0  0
    2.5981    2.6783    0.0000 H   0  0  0  0  0  0  0  0  0  0  0  0
    6.4952    0.4283    0.0000 H   0  0  0  0  0  0  0  0  0  0  0  0
    5.1962    2.6783    0.0000 H   0  0  0  0  0  0  0  0  0  0  0  0
   -0.5131    1.0206    0.0000 H   0  0  0  0  0  0  0  0  0  0  0  0
   -2.5981    2.6783    0.0000 H   0  0  0  0  0  0  0  0  0  0  0  0
   -5.1962   -1.8217    0.0000 H   0  0  0  0  0  0  0  0  0  0  0  0
   -2.5981   -3.3217    0.0000 H   0  0  0  0  0  0  0  0  0  0  0  0
   -6.4952    0.4283    0.0000 H   0  0  0  0  0  0  0  0  0  0  0  0
   -5.1962    2.6783    0.0000 H   0  0  0  0  0  0  0  0  0  0  0  0
  1  2  2  0
  1  6  1  0
  1 16  1  0
  2  3  1  0
  2 17  1  0
  3  4  2  0
  3  8  1  0
  4  5  1  0
  4 18  1  0
  5  6  2  0
  5 19  1  0
  6  7  1  0
  7 20  1  0
  7 21  1  0
  8  9  1  0
  9 10  2  0
  9 14  1  0
 10 11  1  0
 10 22  1  0
 11 12  2  0
 11 23  1  0
 12 13  1  0
 12 15  1  0
 13 14  2  0
 13 24  1  0
 14 25  1  0
 15 26  1  0
 15 27  1  0
M  END
$$$$

     RDKit          2D

 29 29  0  0  0  0  0  0  0  0999 V2000
    4.7409   -0.8956    0.0000 C   0  0  0  0  0  0  0  0  0  0  0  0
    3.3472   -0.3410    0.0000 C   0  0  0  0  0  0  0  0  0  0  0  0
    1.9535    0.2137    0.0000 O   0  0  0  0  0  0  0  0  0  0  0  0
    0.7763   -0.7160    0.0000 P   0  0  0  0  0  0  0  0  0  0  0  0
    2.1700   -1.2706    0.0000 S   0  0  0  0  0  0  0  0  0  0  0  0
    0.5598    0.7683    0.0000 C   0  0  0  0  0  0  0  0  0  0  0  0
    0.3433    2.2526    0.0000 C   0  0  0  0  0  0  0  0  0  0  0  0
   -0.4009   -1.6456    0.0000 S   0  0  0  0  0  0  0  0  0  0  0  0
   -1.7946   -1.0910    0.0000 C   0  0  0  0  0  0  0  0  0  0  0  0
   -2.9717   -2.0207    0.0000 C   0  0  0  0  0  0  0  0  0  0  0  0
   -4.3654   -1.4660    0.0000 C   0  0  0  0  0  0  0  0  0  0  0  0
   -4.5819    0.0183    0.0000 C   0  0  0  0  0  0  0  0  0  0  0  0
   -3.4048    0.9479    0.0000 C   0  0  0  0  0  0  0  0  0  0  0  0
   -2.0111    0.3933    0.0000 C   0  0  0  0  0  0  0  0  0  0  0  0
    5.2955    0.4981    0.0000 H   0  0  0  0  0  0  0  0  0  0  0  0
    4.1862   -2.2893    0.0000 H   0  0  0  0  0  0  0  0  0  0  0  0
    6.1346   -1.4502    0.0000 H   0  0  0  0  0  0  0  0  0  0  0  0
    3.1463   -1.8274    0.0000 H   0  0  0  0  0  0  0  0  0  0  0  0
    3.9018    1.0527    0.0000 H   0  0  0  0  0  0  0  0  0  0  0  0
    1.9476    1.3375    0.0000 H   0  0  0  0  0  0  0  0  0  0  0  0
   -0.5334    0.7435    0.0000 H   0  0  0  0  0  0  0  0  0  0  0  0
    1.8276    2.4691    0.0000 H   0  0  0  0  0  0  0  0  0  0  0  0
   -1.1563    2.2186    0.0000 H   0  0  0  0  0  0  0  0  0  0  0  0
    0.1268    3.7369    0.0000 H   0  0  0  0  0  0  0  0  0  0  0  0
   -2.7552   -3.5050    0.0000 H   0  0  0  0  0  0  0  0  0  0  0  0
   -5.5426   -2.3957    0.0000 H   0  0  0  0  0  0  0  0  0  0  0  0
   -5.9756    0.5729    0.0000 H   0  0  0  0  0  0  0  0  0  0  0  0
   -3.6213    2.4322    0.0000 H   0  0  0  0  0  0  0  0  0  0  0  0
   -1.3424    1.2585    0.0000 H   0  0  0  0  0  0  0  0  0  0  0  0
  1  2  1  0
  1 15  1  0
  1 16  1  0
  1 17  1  0
  2  3  1  0
  2 18  1  0
  2 19  1  0
  3  4  1  0
  4  5  2  0
  4  6  1  0
  4  8  1  0
  6  7  1  0
  6 20  1  0
  6 21  1  0
  7 22  1  0
  7 23  1  0
  7 24  1  0
  8  9  1  0
  9 10  2  0
  9 14  1  0
 10 11  1  0
 10 25  1  0
 11 12  2  0
 11 26  1  0
 12 13  1  0
 12 27  1  0
 13 14  2  0
 13 28  1  0
 14 29  1  0
M  END
$$$$

     RDKit          2D

 29 30  0  0  0  0  0  0  0  0999 V2000
   -3.7500   -1.2990    0.0000 C   0  0  0  0  0  0  0  0  0  0  0  0
   -5.2500   -1.2990    0.0000 C   0  0  0  0  0  0  0  0  0  0  0  0
   -6.0000   -0.0000    0.0000 N   0  0  0  0  0  0  0  0  0  0  0  0
   -5.2500    1.2990    0.0000 C   0  0  0  0  0  0  0  0  0  0  0  0
   -3.7500    1.2990    0.0000 C   0  0  0  0  0  0  0  0  0  0  0  0
   -3.0000   -0.0000    0.0000 C   0  0  0  0  0  0  0  0  0  0  0  0
   -1.5000   -0.0000    0.0000 C   0  0  0  0  0  0  0  0  0  0  0  0
    0.0000    0.0000    0.0000 C   0  0  0  0  0  0  0  0  0  0  0  0
    1.5000    0.0000    0.0000 C   0  0  0  0  0  0  0  0  0  0  0  0
    3.0000    0.0000    0.0000 C   0  0  0  0  0  0  0  0  0  0  0  0
    3.7500   -1.2990    0.0000 C   0  0  0  0  0  0  0  0  0  0  0  0
    5.2500   -1.2990    0.0000 C   0  0  0  0  0  0  0  0  0  0  0  0
    6.0000    0.0000    0.0000 N   0  0  0  0  0  0  0  0  0  0  0  0
    5.2500    1.2990    0.0000 C   0  0  0  0  0  0  0  0  0  0  0  0
    3.7500    1.2990    0.0000 C   0  0  0  0  0  0  0  0  0  0  0  0
   -3.0000   -2.5981    0.0000 H   0  0  0  0  0  0  0  0  0  0  0  0
   -6.0000   -2.5981    0.0000 H   0  0  0  0  0  0  0  0  0  0  0  0
   -6.0000    2.5981    0.0000 H   0  0  0  0  0  0  0  0  0  0  0  0
   -3.0000    2.5981    0.0000 H   0  0  0  0  0  0  0  0  0  0  0  0
   -1.5000   -1.5000    0.0000 H   0  0  0  0  0  0  0  0  0  0  0  0
   -1.5000    1.5000    0.0000 H   0  0  0  0  0  0  0  0  0  0  0  0
    0.0000   -1.5000    0.0000 H   0  0  0  0  0  0  0  0  0  0  0  0
   -0.0000    1.5000    0.0000 H   0  0  0  0  0  0  0  0  0  0  0  0
    1.5000    1.5000    0.0000 H   0  0  0  0  0  0  0  0  0  0  0  0
    1.5000   -1.5000    0.0000 H   0  0  0  0  0  0  0  0  0  0  0  0
    3.0000   -2.5981    0.0000 H   0  0  0  0  0  0  0  0  0  0  0  0
    6.0000   -2.5981    0.0000 H   0  0  0  0  0  0  0  0  0  0  0  0
    6.0000    2.5981    0.0000 H   0  0  0  0  0  0  0  0  0  0  0  0
    3.0000    2.5981    0.0000 H   0  0  0  0  0  0  0  0  0  0  0  0
  1  2  2  0
  1  6  1  0
  1 16  1  0
  2  3  1  0
  2 17  1  0
  3  4  2  0
  4  5  1  0
  4 18  1  0
  5  6  2  0
  5 19  1  0
  6  7  1  0
  7  8  1  0
  7 20  1  0
  7 21  1  0
  8  9  1  0
  8 22  1  0
  8 23  1  0
  9 10  1  0
  9 24  1  0
  9 25  1  0
 10 11  2  0
 10 15  1  0
 11 12  1  0
 11 26  1  0
 12 13  2  0
 12 27  1  0
 13 14  1  0
 14 15  2  0
 14 28  1  0
 15 29  1  0
M  END
$$$$

     RDKit          2D

 16 16  0  0  0  0  0  0  0  0999 V2000
   -0.8119   -1.5000    0.0000 C   0  0  0  0  0  0  0  0  0  0  0  0
   -2.1109   -0.7500    0.0000 C   0  0  0  0  0  0  0  0  0  0  0  0
   -2.1109    0.7500    0.0000 C   0  0  0  0  0  0  0  0  0  0  0  0
   -0.8119    1.5000    0.0000 C   0  0  0  0  0  0  0  0  0  0  0  0
    0.4871    0.7500    0.0000 C   0  0  0  0  0  0  0  0  0  0  0  0
    0.4871   -0.7500    0.0000 C   0  0  0  0  0  0  0  0  0  0  0  0
    1.7862   -1.5000    0.0000 N   0  0  0  0  0  0  0  0  0  0  0  0
    3.0852   -0.7500    0.0000 O   0  0  0  0  0  0  0  0  0  0  0  0
    1.7862   -3.0000    0.0000 O   0  0  0  0  0  0  0  0  0  0  0  0
    1.7862    1.5000    0.0000 N   0  0  0  0  0  0  0  0  0  0  0  0
   -0.8119    3.0000    0.0000 Cl  0  0  0  0  0  0  0  0  0  0  0  0
   -3.4100   -1.5000    0.0000 Cl  0  0  0  0  0  0  0  0  0  0  0  0
   -0.8119   -3.0000    0.0000 H   0  0  0  0  0  0  0  0  0  0  0  0
   -3.4100    1.5000    0.0000 H   0  0  0  0  0  0  0  0  0  0  0  0
    3.0852    0.7500    0.0000 H   0  0  0  0  0  0  0  0  0  0  0  0
    1.7862    3.0000    0.0000 H   0  0  0  0  0  0  0  0  0  0  0  0
  1  2  2  0
  1  6  1  0
  1 13  1  0
  2  3  1  0
  2 12  1  0
  3  4  2  0
  3 14  1  0
  4  5  1  0
  4 11  1  0
  5  6  2  0
  5 10  1  0
  6  7  1  0
  7  8  2  0
  7  9  1  0
 10 15  1  0
 10 16  1  0
M  CHG  2   7   1   9  -1
M  END
$$$$

     RDKit          2D

 25 26  0  0  0  0  0  0  0  0999 V2000
   -4.1215   -0.6213    0.0000 C   0  0  0  0  0  0  0  0  0  0  0  0
   -3.9928    0.8732    0.0000 C   0  0  0  0  0  0  0  0  0  0  0  0
   -2.6342    1.5090    0.0000 C   0  0  0  0  0  0  0  0  0  0  0  0
   -1.4043    0.6503    0.0000 C   0  0  0  0  0  0  0  0  0  0  0  0
   -1.5330   -0.8442    0.0000 C   0  0  0  0  0  0  0  0  0  0  0  0
   -2.8916   -1.4800    0.0000 C   0  0  0  0  0  0  0  0  0  0  0  0
   -0.0457    1.2860    0.0000 C   0  0  0  0  0  0  0  0  0  0  0  0
    0.0830    2.7805    0.0000 O   0  0  0  0  0  0  0  0  0  0  0  0
    1.1842    0.4273    0.0000 C   0  0  0  0  0  0  0  0  0  0  0  0
    1.0555   -1.0671    0.0000 C   0  0  0  0  0  0  0  0  0  0  0  0
    2.2854   -1.9258    0.0000 C   0  0  0  0  0  0  0  0  0  0  0  0
    3.6440   -1.2901    0.0000 C   0  0  0  0  0  0  0  0  0  0  0  0
    3.7727    0.2044    0.0000 C   0  0  0  0  0  0  0  0  0  0  0  0
    2.5428    1.0631    0.0000 C   0  0  0  0  0  0  0  0  0  0  0  0
    2.6715    2.5576    0.0000 O   0  0  0  0  0  0  0  0  0  0  0  0
   -5.4801   -1.2570    0.0000 H   0  0  0  0  0  0  0  0  0  0  0  0
   -5.2227    1.7319    0.0000 H   0  0  0  0  0  0  0  0  0  0  0  0
   -2.5055    3.0034    0.0000 H   0  0  0  0  0  0  0  0  0  0  0  0
   -0.8008   -1.5017    0.0000 H   0  0  0  0  0  0  0  0  0  0  0  0
   -3.0203   -2.9744    0.0000 H   0  0  0  0  0  0  0  0  0  0  0  0
    0.2216   -1.5898    0.0000 H   0  0  0  0  0  0  0  0  0  0  0  0
    2.1567   -3.4203    0.0000 H   0  0  0  0  0  0  0  0  0  0  0  0
    4.8739   -2.1488    0.0000 H   0  0  0  0  0  0  0  0  0  0  0  0
    5.1313    0.8402    0.0000 H   0  0  0  0  0  0  0  0  0  0  0  0
    4.0301    3.1934    0.0000 H   0  0  0  0  0  0  0  0  0  0  0  0
  1  2  2  0
  1  6  1  0
  1 16  1  0
  2  3  1  0
  2 17  1  0
  3  4  2  0
  3 18  1  0
  4  5  1  0
  4  7  1  0
  5  6  2  0
  5 19  1  0
  6 20  1  0
  7  8  2  0
  7  9  1  0
  9 10  2  0
  9 14  1  0
 10 11  1  0
 10 21  1  0
 11 12  2  0
 11 22  1  0
 12 13  1  0
 12 23  1  0
 13 14  2  0
 13 24  1  0
 14 15  1  0
 15 25  1  0
M  END
$$$$

     RDKit          2D

 32 32  0  0  0  0  0  0  0  0999 V2000
    4.0060   -2.7254    0.0000 C   0  0  0  0  0  0  0  0  0  0  0  0
    2.6053   -3.2621    0.0000 C   0  0  0  0  0  0  0  0  0  0  0  0
    1.4401   -2.3174    0.0000 C   0  0  0  0  0  0  0  0  0  0  0  0
    0.2750   -1.3727    0.0000 O   0  0  0  0  0  0  0  0  0  0  0  0
   -1.1257   -1.9094    0.0000 C   0  0  0  0  0  0  0  0  0  0  0  0
   -1.3613   -3.3908    0.0000 O   0  0  0  0  0  0  0  0  0  0  0  0
   -2.2909   -0.9647    0.0000 C   0  0  0  0  0  0  0  0  0  0  0  0
   -3.6915   -1.5014    0.0000 C   0  0  0  0  0  0  0  0  0  0  0  0
   -4.8567   -0.5567    0.0000 C   0  0  0  0  0  0  0  0  0  0  0  0
   -4.6211    0.9246    0.0000 C   0  0  0  0  0  0  0  0  0  0  0  0
   -3.2205    1.4613    0.0000 C   0  0  0  0  0  0  0  0  0  0  0  0
   -2.0553    0.5167    0.0000 C   0  0  0  0  0  0  0  0  0  0  0  0
   -0.6546    1.0534    0.0000 C   0  0  0  0  0  0  0  0  0  0  0  0
    0.5105    0.1087    0.0000 O   0  0  0  0  0  0  0  0  0  0  0  0
   -0.4191    2.5348    0.0000 O   0  0  0  0  0  0  0  0  0  0  0  0
    0.9816    3.0715    0.0000 C   0  0  0  0  0  0  0  0  0  0  0  0
    2.3823    3.6082    0.0000 C   0  0  0  0  0  0  0  0  0  0  0  0
    3.5475    2.6635    0.0000 C   0  0  0  0  0  0  0  0  0  0  0  0
    5.1711   -3.6701    0.0000 H   0  0  0  0  0  0  0  0  0  0  0  0
    4.2415   -1.2440    0.0000 H   0  0  0  0  0  0  0  0  0  0  0  0
    2.3697   -4.7435    0.0000 H   0  0  0  0  0  0  0  0  0  0  0  0
    2.3848   -1.1523    0.0000 H   0  0  0  0  0  0  0  0  0  0  0  0
    0.4955   -3.4825    0.0000 H   0  0  0  0  0  0  0  0  0  0  0  0
   -3.9271   -2.9828    0.0000 H   0  0  0  0  0  0  0  0  0  0  0  0
   -6.2574   -1.0935    0.0000 H   0  0  0  0  0  0  0  0  0  0  0  0
   -5.7863    1.8693    0.0000 H   0  0  0  0  0  0  0  0  0  0  0  0
   -2.9849    2.9427    0.0000 H   0  0  0  0  0  0  0  0  0  0  0  0
    1.5183    1.6708    0.0000 H   0  0  0  0  0  0  0  0  0  0  0  0
    0.4449    4.4722    0.0000 H   0  0  0  0  0  0  0  0  0  0  0  0
    2.6179    5.0896    0.0000 H   0  0  0  0  0  0  0  0  0  0  0  0
    4.9482    3.2002    0.0000 H   0  0  0  0  0  0  0  0  0  0  0  0
    3.3119    1.1821    0.0000 H   0  0  0  0  0  0  0  0  0  0  0  0
  1  2  2  0
  1 19  1  0
  1 20  1  0
  2  3  1  0
  2 21  1  0
  3  4  1  0
  3 22  1  0
  3 23  1  0
  4  5  1  0
  5  6  2  0
  5  7  1  0
  7  8  2  0
  7 12  1  0
  8  9  1  0
  8 24  1  0
  9 10  2  0
  9 25  1  0
 10 11  1  0
 10 26  1  0
 11 12  2  0
 11 27  1  0
 12 13  1  0
 13 14  2  0
 13 15  1  0
 15 16  1  0
 16 17  1  0
 16 28  1  0
 16 29  1  0
 17 18  2  0
 17 30  1  0
 18 31  1  0
 18 32  1  0
M  END
$$$$

     RDKit          2D

 40 41  0  0  0  0  0  0  0  0999 V2000
   -0.3572   -4.0010    0.0000 C   0  0  0  0  0  0  0  0  0  0  0  0
   -0.2018   -2.5091    0.0000 C   0  0  0  0  0  0  0  0  0  0  0  0
   -0.0464   -1.0172    0.0000 N   0  0  0  0  0  0  0  0  0  0  0  0
    1.3234   -0.4058    0.0000 C   0  0  0  0  0  0  0  0  0  0  0  0
    2.6931    0.2056    0.0000 C   0  0  0  0  0  0  0  0  0  0  0  0
    3.9074   -0.6750    0.0000 C   0  0  0  0  0  0  0  0  0  0  0  0
    5.2772   -0.0636    0.0000 C   0  0  0  0  0  0  0  0  0  0  0  0
    5.4326    1.4284    0.0000 C   0  0  0  0  0  0  0  0  0  0  0  0
    4.2182    2.3089    0.0000 C   0  0  0  0  0  0  0  0  0  0  0  0
    2.8485    1.6975    0.0000 C   0  0  0  0  0  0  0  0  0  0  0  0
    1.6342    2.5781    0.0000 Cl  0  0  0  0  0  0  0  0  0  0  0  0
    3.7520   -2.1669    0.0000 F   0  0  0  0  0  0  0  0  0  0  0  0
   -1.2607   -0.1366    0.0000 C   0  0  0  0  0  0  0  0  0  0  0  0
   -2.6305   -0.7480    0.0000 C   0  0  0  0  0  0  0  0  0  0  0  0
   -3.8448    0.1325    0.0000 C   0  0  0  0  0  0  0  0  0  0  0  0
   -3.6894    1.6245    0.0000 C   0  0  0  0  0  0  0  0  0  0  0  0
   -2.3197    2.2358    0.0000 C   0  0  0  0  0  0  0  0  0  0  0  0
   -1.1053    1.3553    0.0000 C   0  0  0  0  0  0  0  0  0  0  0  0
    0.2644    1.9667    0.0000 N   0  0  0  0  0  0  0  0  0  0  0  0
    1.5770    1.2407    0.0000 O   0  0  0  0  0  0  0  0  0  0  0  0
    0.4198    3.4586    0.0000 O   0  0  0  0  0  0  0  0  0  0  0  0
   -4.9038    2.5050    0.0000 C   0  0  0  0  0  0  0  0  0  0  0  0
   -6.1181    3.3855    0.0000 F   0  0  0  0  0  0  0  0  0  0  0  0
   -4.0232    3.7193    0.0000 F   0  0  0  0  0  0  0  0  0  0  0  0
   -5.7843    1.2907    0.0000 F   0  0  0  0  0  0  0  0  0  0  0  0
   -2.7859   -2.2399    0.0000 N   0  0  0  0  0  0  0  0  0  0  0  0
   -2.2730   -2.8502    0.0000 O   0  0  0  0  0  0  0  0  0  0  0  0
   -4.1556   -2.8513    0.0000 O   0  0  0  0  0  0  0  0  0  0  0  0
    1.1347   -4.1564    0.0000 H   0  0  0  0  0  0  0  0  0  0  0  0
   -1.5720   -4.0234    0.0000 H   0  0  0  0  0  0  0  0  0  0  0  0
   -0.5126   -5.4930    0.0000 H   0  0  0  0  0  0  0  0  0  0  0  0
   -1.2951   -2.5292    0.0000 H   0  0  0  0  0  0  0  0  0  0  0  0
    1.2901   -2.6645    0.0000 H   0  0  0  0  0  0  0  0  0  0  0  0
    1.9347   -1.7755    0.0000 H   0  0  0  0  0  0  0  0  0  0  0  0
    0.8835    1.0283    0.0000 H   0  0  0  0  0  0  0  0  0  0  0  0
    6.4915   -0.9441    0.0000 H   0  0  0  0  0  0  0  0  0  0  0  0
    6.8023    2.0397    0.0000 H   0  0  0  0  0  0  0  0  0  0  0  0
    4.3736    3.8008    0.0000 H   0  0  0  0  0  0  0  0  0  0  0  0
   -5.2146   -0.4789    0.0000 H   0  0  0  0  0  0  0  0  0  0  0  0
   -2.1643    3.7278    0.0000 H   0  0  0  0  0  0  0  0  0  0  0  0
  1  2  1  0
  1 29  1  0
  1 30  1  0
  1 31  1  0
  2  3  1  0
  2 32  1  0
  2 33  1  0
  3  4  1  0
  3 13  1  0
  4  5  1  0
  4 34  1  0
  4 35  1  0
  5  6  2  0
  5 10  1  0
  6  7  1  0
  6 12  1  0
  7  8  2  0
  7 36  1  0
  8  9  1  0
  8 37  1  0
  9 10  2  0
  9 38  1  0
 10 11  1  0
 13 14  2  0
 13 18  1  0
 14 15  1  0
 14 26  1  0
 15 16  2  0
 15 39  1  0
 16 17  1  0
 16 22  1  0
 17 18  2  0
 17 40  1  0
 18 19  1  0
 19 20  2  0
 19 21  1  0
 22 23  1  0
 22 24  1  0
 22 25  1  0
 26 27  2  0
 26 28  1  0
M  CHG  4  19   1  21  -1  26   1  28  -1
M  END
$$$$

     RDKit          2D

 26 26  0  0  0  0  0  0  0  0999 V2000
   -1.5723    1.2471    0.0000 C   0  0  0  0  0  0  0  0  0  0  0  0
   -1.3225   -0.2319    0.0000 C   0  0  0  0  0  0  0  0  0  0  0  0
   -1.0726   -1.7109    0.0000 C   0  0  0  0  0  0  0  0  0  0  0  0
   -2.8015   -0.4818    0.0000 C   0  0  0  0  0  0  0  0  0  0  0  0
    0.1566    0.0180    0.0000 C   0  0  0  0  0  0  0  0  0  0  0  0
    0.6797    1.4238    0.0000 C   0  0  0  0  0  0  0  0  0  0  0  0
    2.1587    1.6737    0.0000 C   0  0  0  0  0  0  0  0  0  0  0  0
    3.1147    0.5177    0.0000 C   0  0  0  0  0  0  0  0  0  0  0  0
    2.5915   -0.8881    0.0000 C   0  0  0  0  0  0  0  0  0  0  0  0
    1.1125   -1.1380    0.0000 C   0  0  0  0  0  0  0  0  0  0  0  0
    3.5474   -2.0441    0.0000 O   0  0  0  0  0  0  0  0  0  0  0  0
   -0.2762    2.5797    0.0000 O   0  0  0  0  0  0  0  0  0  0  0  0
   -2.4572    1.2072    0.0000 H   0  0  0  0  0  0  0  0  0  0  0  0
   -0.5702    1.6848    0.0000 H   0  0  0  0  0  0  0  0  0  0  0  0
   -1.8222    2.7262    0.0000 H   0  0  0  0  0  0  0  0  0  0  0  0
   -1.9215   -1.9638    0.0000 H   0  0  0  0  0  0  0  0  0  0  0  0
    0.1388   -1.8045    0.0000 H   0  0  0  0  0  0  0  0  0  0  0  0
   -0.8227   -3.1900    0.0000 H   0  0  0  0  0  0  0  0  0  0  0  0
   -2.7615   -1.3666    0.0000 H   0  0  0  0  0  0  0  0  0  0  0  0
   -3.0544    0.3671    0.0000 H   0  0  0  0  0  0  0  0  0  0  0  0
   -4.2806   -0.7316    0.0000 H   0  0  0  0  0  0  0  0  0  0  0  0
    2.6819    3.0795    0.0000 H   0  0  0  0  0  0  0  0  0  0  0  0
    4.5937    0.7676    0.0000 H   0  0  0  0  0  0  0  0  0  0  0  0
    0.6888   -2.2767    0.0000 H   0  0  0  0  0  0  0  0  0  0  0  0
    3.0243   -3.4499    0.0000 H   0  0  0  0  0  0  0  0  0  0  0  0
    0.2469    3.9856    0.0000 H   0  0  0  0  0  0  0  0  0  0  0  0
  1  2  1  0
  1 13  1  0
  1 14  1  0
  1 15  1  0
  2  3  1  0
  2  4  1  0
  2  5  1  0
  3 16  1  0
  3 17  1  0
  3 18  1  0
  4 19  1  0
  4 20  1  0
  4 21  1  0
  5  6  2  0
  5 10  1  0
  6  7  1  0
  6 12  1  0
  7  8  2  0
  7 22  1  0
  8  9  1  0
  8 23  1  0
  9 10  2  0
  9 11  1  0
 10 24  1  0
 11 25  1  0
 12 26  1  0
M  END
$$$$

     RDKit          2D

 51 51  0  0  0  0  0  0  0  0999 V2000
    2.2329   -2.4499    0.0000 C   0  0  0  0  0  0  0  0  0  0  0  0
    3.4375   -1.5560    0.0000 C   0  0  0  0  0  0  0  0  0  0  0  0
    3.2656   -0.0659    0.0000 C   0  0  0  0  0  0  0  0  0  0  0  0
    4.4702    0.8280    0.0000 C   0  0  0  0  0  0  0  0  0  0  0  0
    5.8466    0.2318    0.0000 C   0  0  0  0  0  0  0  0  0  0  0  0
    6.0185   -1.2583    0.0000 C   0  0  0  0  0  0  0  0  0  0  0  0
    4.8139   -2.1522    0.0000 C   0  0  0  0  0  0  0  0  0  0  0  0
    3.3807    1.8590    0.0000 C   0  0  0  0  0  0  0  0  0  0  0  0
    5.2964    2.0800    0.0000 C   0  0  0  0  0  0  0  0  0  0  0  0
    1.8892    0.5303    0.0000 C   0  0  0  0  0  0  0  0  0  0  0  0
    0.6847   -0.3636    0.0000 C   0  0  0  0  0  0  0  0  0  0  0  0
   -0.6917    0.2327    0.0000 C   0  0  0  0  0  0  0  0  0  0  0  0
   -1.8963   -0.6612    0.0000 C   0  0  0  0  0  0  0  0  0  0  0  0
   -3.2727   -0.0650    0.0000 C   0  0  0  0  0  0  0  0  0  0  0  0
   -4.4773   -0.9589    0.0000 C   0  0  0  0  0  0  0  0  0  0  0  0
   -5.8537   -0.3627    0.0000 C   0  0  0  0  0  0  0  0  0  0  0  0
   -7.0582   -1.2566    0.0000 C   0  0  0  0  0  0  0  0  0  0  0  0
   -8.4346   -0.6603    0.0000 C   0  0  0  0  0  0  0  0  0  0  0  0
   -9.8111   -0.0641    0.0000 O   0  0  0  0  0  0  0  0  0  0  0  0
   -6.0255    1.1274    0.0000 C   0  0  0  0  0  0  0  0  0  0  0  0
   -0.8636    1.7228    0.0000 C   0  0  0  0  0  0  0  0  0  0  0  0
    1.1989   -1.3633    0.0000 H   0  0  0  0  0  0  0  0  0  0  0  0
    2.9733   -3.7544    0.0000 H   0  0  0  0  0  0  0  0  0  0  0  0
    1.0284   -3.3438    0.0000 H   0  0  0  0  0  0  0  0  0  0  0  0
    6.3700    1.6375    0.0000 H   0  0  0  0  0  0  0  0  0  0  0  0
    7.3439    0.1423    0.0000 H   0  0  0  0  0  0  0  0  0  0  0  0
    7.4561   -0.8303    0.0000 H   0  0  0  0  0  0  0  0  0  0  0  0
    6.6896   -2.5998    0.0000 H   0  0  0  0  0  0  0  0  0  0  0  0
    5.9034   -3.1833    0.0000 H   0  0  0  0  0  0  0  0  0  0  0  0
    4.1465   -3.4956    0.0000 H   0  0  0  0  0  0  0  0  0  0  0  0
    3.8540    2.5005    0.0000 H   0  0  0  0  0  0  0  0  0  0  0  0
    2.3568    1.2049    0.0000 H   0  0  0  0  0  0  0  0  0  0  0  0
    2.2912    2.8901    0.0000 H   0  0  0  0  0  0  0  0  0  0  0  0
    4.6895    2.5969    0.0000 H   0  0  0  0  0  0  0  0  0  0  0  0
    6.6397    1.4126    0.0000 H   0  0  0  0  0  0  0  0  0  0  0  0
    6.1225    3.3320    0.0000 H   0  0  0  0  0  0  0  0  0  0  0  0
    1.7174    2.0205    0.0000 H   0  0  0  0  0  0  0  0  0  0  0  0
    0.6736   -1.8635    0.0000 H   0  0  0  0  0  0  0  0  0  0  0  0
   -1.7244   -2.1514    0.0000 H   0  0  0  0  0  0  0  0  0  0  0  0
   -3.4446    1.4251    0.0000 H   0  0  0  0  0  0  0  0  0  0  0  0
   -4.3054   -2.4490    0.0000 H   0  0  0  0  0  0  0  0  0  0  0  0
   -6.8864   -2.7467    0.0000 H   0  0  0  0  0  0  0  0  0  0  0  0
   -8.0106    0.7785    0.0000 H   0  0  0  0  0  0  0  0  0  0  0  0
   -9.0309   -2.0368    0.0000 H   0  0  0  0  0  0  0  0  0  0  0  0
   -9.9829    1.4260    0.0000 H   0  0  0  0  0  0  0  0  0  0  0  0
   -7.5255    1.1385    0.0000 H   0  0  0  0  0  0  0  0  0  0  0  0
   -4.5354    1.2993    0.0000 H   0  0  0  0  0  0  0  0  0  0  0  0
   -6.1974    2.6176    0.0000 H   0  0  0  0  0  0  0  0  0  0  0  0
   -2.3537    1.5509    0.0000 H   0  0  0  0  0  0  0  0  0  0  0  0
    0.6265    1.8947    0.0000 H   0  0  0  0  0  0  0  0  0  0  0  0
   -1.0355    3.2129    0.0000 H   0  0  0  0  0  0  0  0  0  0  0  0
  1  2  1  0
  1 22  1  0
  1 23  1  0
  1 24  1  0
  2  3  2  0
  2  7  1  0
  3  4  1  0
  3 10  1  0
  4  5  1  0
  4  8  1  0
  4  9  1  0
  5  6  1  0
  5 25  1  0
  5 26  1  0
  6  7  1  0
  6 27  1  0
  6 28  1  0
  7 29  1  0
  7 30  1  0
  8 31  1  0
  8 32  1  0
  8 33  1  0
  9 34  1  0
  9 35  1  0
  9 36  1  0
 10 11  2  0
 10 37  1  0
 11 12  1  0
 11 38  1  0
 12 13  2  0
 12 21  1  0
 13 14  1  0
 13 39  1  0
 14 15  2  0
 14 40  1  0
 15 16  1  0
 15 41  1  0
 16 17  2  0
 16 20  1  0
 17 18  1  0
 17 42  1  0
 18 19  1  0
 18 43  1  0
 18 44  1  0
 19 45  1  0
 20 46  1  0
 20 47  1  0
 20 48  1  0
 21 49  1  0
 21 50  1  0
 21 51  1  0
M  END
$$$$

     RDKit          2D

 38 39  0  0  0  0  0  0  0  0999 V2000
   -0.5805    1.7280    0.0000 C   0  0  0  0  0  0  0  0  0  0  0  0
   -1.0610    0.3071    0.0000 C   0  0  0  0  0  0  0  0  0  0  0  0
   -1.5415   -1.1138    0.0000 C   0  0  0  0  0  0  0  0  0  0  0  0
   -2.4819    0.7876    0.0000 C   0  0  0  0  0  0  0  0  0  0  0  0
    0.3599   -0.1734    0.0000 C   0  0  0  0  0  0  0  0  0  0  0  0
   -0.1206   -1.5944    0.0000 C   0  0  0  0  0  0  0  0  0  0  0  0
   -1.5415   -1.1138    0.0000 N   0  0  0  0  0  0  0  0  0  0  0  0
   -2.7655   -1.9810    0.0000 C   0  0  0  0  0  0  0  0  0  0  0  0
   -3.9684   -1.0849    0.0000 N   0  0  0  0  0  0  0  0  0  0  0  0
   -3.4879    0.3361    0.0000 C   0  0  0  0  0  0  0  0  0  0  0  0
   -1.9880    0.3182    0.0000 N   0  0  0  0  0  0  0  0  0  0  0  0
    1.3004   -2.0749    0.0000 O   0  0  0  0  0  0  0  0  0  0  0  0
    2.4270   -1.0846    0.0000 C   0  0  0  0  0  0  0  0  0  0  0  0
    3.8479   -1.5651    0.0000 C   0  0  0  0  0  0  0  0  0  0  0  0
    4.9746   -0.5748    0.0000 C   0  0  0  0  0  0  0  0  0  0  0  0
    4.6802    0.8960    0.0000 C   0  0  0  0  0  0  0  0  0  0  0  0
    3.2593    1.3766    0.0000 C   0  0  0  0  0  0  0  0  0  0  0  0
    2.1327    0.3863    0.0000 C   0  0  0  0  0  0  0  0  0  0  0  0
    5.8069    1.8863    0.0000 Cl  0  0  0  0  0  0  0  0  0  0  0  0
    0.8405    1.2475    0.0000 O   0  0  0  0  0  0  0  0  0  0  0  0
   -1.8429    2.5381    0.0000 H   0  0  0  0  0  0  0  0  0  0  0  0
   -2.0014    2.2086    0.0000 H   0  0  0  0  0  0  0  0  0  0  0  0
   -0.2767    3.1970    0.0000 H   0  0  0  0  0  0  0  0  0  0  0  0
   -3.0105   -0.8101    0.0000 H   0  0  0  0  0  0  0  0  0  0  0  0
   -0.2791   -1.9239    0.0000 H   0  0  0  0  0  0  0  0  0  0  0  0
   -2.0221   -2.5348    0.0000 H   0  0  0  0  0  0  0  0  0  0  0  0
   -2.3595    2.2826    0.0000 H   0  0  0  0  0  0  0  0  0  0  0  0
   -3.1321   -0.5641    0.0000 H   0  0  0  0  0  0  0  0  0  0  0  0
   -3.8337    1.4378    0.0000 H   0  0  0  0  0  0  0  0  0  0  0  0
    1.8549   -0.2958    0.0000 H   0  0  0  0  0  0  0  0  0  0  0  0
   -0.6011   -3.0153    0.0000 H   0  0  0  0  0  0  0  0  0  0  0  0
   -2.7834   -3.4809    0.0000 H   0  0  0  0  0  0  0  0  0  0  0  0
   -4.4977    1.4452    0.0000 H   0  0  0  0  0  0  0  0  0  0  0  0
    4.1423   -3.0360    0.0000 H   0  0  0  0  0  0  0  0  0  0  0  0
    6.3955   -1.0553    0.0000 H   0  0  0  0  0  0  0  0  0  0  0  0
    2.9650    2.8474    0.0000 H   0  0  0  0  0  0  0  0  0  0  0  0
    0.8702    1.1963    0.0000 H   0  0  0  0  0  0  0  0  0  0  0  0
    0.3198    2.6543    0.0000 H   0  0  0  0  0  0  0  0  0  0  0  0
  1  2  1  0
  1 21  1  0
  1 22  1  0
  1 23  1  0
  2  3  1  0
  2  4  1  0
  2  5  1  0
  3 24  1  0
  3 25  1  0
  3 26  1  0
  4 27  1  0
  4 28  1  0
  4 29  1  0
  5  6  1  0
  5 20  1  0
  5 30  1  1
  6  7  1  0
  6 12  1  0
  6 31  1  1
  7  8  1  0
  7 11  1  0
  8  9  2  0
  8 32  1  0
  9 10  1  0
 10 11  2  0
 10 33  1  0
 12 13  1  0
 13 14  2  0
 13 18  1  0
 14 15  1  0
 14 34  1  0
 15 16  2  0
 15 35  1  0
 16 17  1  0
 16 19  1  0
 17 18  2  0
 17 36  1  0
 18 37  1  0
 20 38  1  0
M  END
$$$$

     RDKit          2D

 77 76  0  0  0  0  0  0  0  0999 V2000
   15.5885    2.4435    0.0000 C   0  0  0  0  0  0  0  0  0  0  0  0
   14.2894    1.6935    0.0000 C   0  0  0  0  0  0  0  0  0  0  0  0
   12.9904    0.9435    0.0000 C   0  0  0  0  0  0  0  0  0  0  0  0
   11.6913    0.1935    0.0000 C   0  0  0  0  0  0  0  0  0  0  0  0
   10.3923   -0.5565    0.0000 C   0  0  0  0  0  0  0  0  0  0  0  0
    9.6423    0.7425    0.0000 C   0  0  0  0  0  0  0  0  0  0  0  0
    8.8923    2.0416    0.0000 C   0  0  0  0  0  0  0  0  0  0  0  0
    9.0933   -1.3065    0.0000 C   0  0  0  0  0  0  0  0  0  0  0  0
    9.0933   -2.8065    0.0000 O   0  0  0  0  0  0  0  0  0  0  0  0
    7.7942   -0.5565    0.0000 O   0  0  0  0  0  0  0  0  0  0  0  0
    6.4952   -1.3065    0.0000 C   0  0  0  0  0  0  0  0  0  0  0  0
    5.1962   -2.0565    0.0000 C   0  0  0  0  0  0  0  0  0  0  0  0
    3.8971   -2.8065    0.0000 O   0  0  0  0  0  0  0  0  0  0  0  0
    2.5981   -2.0565    0.0000 C   0  0  0  0  0  0  0  0  0  0  0  0
    1.2990   -1.3065    0.0000 C   0  0  0  0  0  0  0  0  0  0  0  0
    0.0000   -0.5565    0.0000 O   0  0  0  0  0  0  0  0  0  0  0  0
   -1.2990   -1.3065    0.0000 C   0  0  0  0  0  0  0  0  0  0  0  0
   -2.5981   -2.0565    0.0000 C   0  0  0  0  0  0  0  0  0  0  0  0
   -3.8971   -2.8065    0.0000 O   0  0  0  0  0  0  0  0  0  0  0  0
   -5.1962   -2.0565    0.0000 C   0  0  0  0  0  0  0  0  0  0  0  0
   -6.4952   -1.3065    0.0000 C   0  0  0  0  0  0  0  0  0  0  0  0
   -7.7942   -0.5565    0.0000 O   0  0  0  0  0  0  0  0  0  0  0  0
   -9.0933   -1.3065    0.0000 C   0  0  0  0  0  0  0  0  0  0  0  0
   -9.0933   -2.8065    0.0000 O   0  0  0  0  0  0  0  0  0  0  0  0
  -10.3923   -0.5565    0.0000 C   0  0  0  0  0  0  0  0  0  0  0  0
   -9.6423    0.7425    0.0000 C   0  0  0  0  0  0  0  0  0  0  0  0
   -8.8923    2.0416    0.0000 C   0  0  0  0  0  0  0  0  0  0  0  0
  -11.6913    0.1935    0.0000 C   0  0  0  0  0  0  0  0  0  0  0  0
  -12.9904    0.9435    0.0000 C   0  0  0  0  0  0  0  0  0  0  0  0
  -14.2894    1.6935    0.0000 C   0  0  0  0  0  0  0  0  0  0  0  0
  -15.5885    2.4435    0.0000 C   0  0  0  0  0  0  0  0  0  0  0  0
   16.3385    1.1445    0.0000 H   0  0  0  0  0  0  0  0  0  0  0  0
   14.8385    3.7425    0.0000 H   0  0  0  0  0  0  0  0  0  0  0  0
   16.8875    3.1935    0.0000 H   0  0  0  0  0  0  0  0  0  0  0  0
   13.5394    2.9925    0.0000 H   0  0  0  0  0  0  0  0  0  0  0  0
   15.0394    0.3945    0.0000 H   0  0  0  0  0  0  0  0  0  0  0  0
   13.7404   -0.3555    0.0000 H   0  0  0  0  0  0  0  0  0  0  0  0
   12.2404    2.2425    0.0000 H   0  0  0  0  0  0  0  0  0  0  0  0
   11.3453    1.0088    0.0000 H   0  0  0  0  0  0  0  0  0  0  0  0
   12.4413   -1.1055    0.0000 H   0  0  0  0  0  0  0  0  0  0  0  0
   11.1423   -1.8555    0.0000 H   0  0  0  0  0  0  0  0  0  0  0  0
   10.3497    1.2756    0.0000 H   0  0  0  0  0  0  0  0  0  0  0  0
    8.2004    0.3292    0.0000 H   0  0  0  0  0  0  0  0  0  0  0  0
    7.5933    1.2916    0.0000 H   0  0  0  0  0  0  0  0  0  0  0  0
   10.1913    2.7916    0.0000 H   0  0  0  0  0  0  0  0  0  0  0  0
    8.1423    3.3406    0.0000 H   0  0  0  0  0  0  0  0  0  0  0  0
    5.7452   -0.0075    0.0000 H   0  0  0  0  0  0  0  0  0  0  0  0
    7.2452   -2.6055    0.0000 H   0  0  0  0  0  0  0  0  0  0  0  0
    4.4462   -0.7575    0.0000 H   0  0  0  0  0  0  0  0  0  0  0  0
    5.9462   -3.3555    0.0000 H   0  0  0  0  0  0  0  0  0  0  0  0
    1.8481   -3.3555    0.0000 H   0  0  0  0  0  0  0  0  0  0  0  0
    3.3481   -0.7575    0.0000 H   0  0  0  0  0  0  0  0  0  0  0  0
    0.5490   -2.6055    0.0000 H   0  0  0  0  0  0  0  0  0  0  0  0
    2.0490   -0.0075    0.0000 H   0  0  0  0  0  0  0  0  0  0  0  0
   -2.0490   -0.0075    0.0000 H   0  0  0  0  0  0  0  0  0  0  0  0
   -0.5490   -2.6055    0.0000 H   0  0  0  0  0  0  0  0  0  0  0  0
   -3.3481   -0.7575    0.0000 H   0  0  0  0  0  0  0  0  0  0  0  0
   -1.8481   -3.3555    0.0000 H   0  0  0  0  0  0  0  0  0  0  0  0
   -5.9462   -3.3555    0.0000 H   0  0  0  0  0  0  0  0  0  0  0  0
   -4.4462   -0.7575    0.0000 H   0  0  0  0  0  0  0  0  0  0  0  0
   -7.2452   -2.6055    0.0000 H   0  0  0  0  0  0  0  0  0  0  0  0
   -5.7452   -0.0075    0.0000 H   0  0  0  0  0  0  0  0  0  0  0  0
  -11.1423   -1.8555    0.0000 H   0  0  0  0  0  0  0  0  0  0  0  0
  -10.3497    1.2756    0.0000 H   0  0  0  0  0  0  0  0  0  0  0  0
   -8.2004    0.3292    0.0000 H   0  0  0  0  0  0  0  0  0  0  0  0
   -7.5933    1.2916    0.0000 H   0  0  0  0  0  0  0  0  0  0  0  0
  -10.1913    2.7916    0.0000 H   0  0  0  0  0  0  0  0  0  0  0  0
   -8.1423    3.3406    0.0000 H   0  0  0  0  0  0  0  0  0  0  0  0
  -11.3453    1.0088    0.0000 H   0  0  0  0  0  0  0  0  0  0  0  0
  -12.4413   -1.1055    0.0000 H   0  0  0  0  0  0  0  0  0  0  0  0
  -13.7404   -0.3555    0.0000 H   0  0  0  0  0  0  0  0  0  0  0  0
  -12.2404    2.2425    0.0000 H   0  0  0  0  0  0  0  0  0  0  0  0
  -13.5394    2.9925    0.0000 H   0  0  0  0  0  0  0  0  0  0  0  0
  -15.0394    0.3945    0.0000 H   0  0  0  0  0  0  0  0  0  0  0  0
  -16.3385    1.1445    0.0000 H   0  0  0  0  0  0  0  0  0  0  0  0
  -14.8385    3.7425    0.0000 H   0  0  0  0  0  0  0  0  0  0  0  0
  -16.8875    3.1935    0.0000 H   0  0  0  0  0  0  0  0  0  0  0  0
  1  2  1  0
  1 32  1  0
  1 33  1  0
  1 34  1  0
  2  3  1  0
  2 35  1  0
  2 36  1  0
  3  4  1  0
  3 37  1  0
  3 38  1  0
  4  5  1  0
  4 39  1  0
  4 40  1  0
  5  6  1  0
  5  8  1  0
  5 41  1  1
  6  7  1  0
  6 42  1  0
  6 43  1  0
  7 44  1  0
  7 45  1  0
  7 46  1  0
  8  9  2  0
  8 10  1  0
 10 11  1  0
 11 12  1  0
 11 47  1  0
 11 48  1  0
 12 13  1  0
 12 49  1  0
 12 50  1  0
 13 14  1  0
 14 15  1  0
 14 51  1  0
 14 52  1  0
 15 16  1  0
 15 53  1  0
 15 54  1  0
 16 17  1  0
 17 18  1  0
 17 55  1  0
 17 56  1  0
 18 19  1  0
 18 57  1  0
 18 58  1  0
 19 20  1  0
 20 21  1  0
 20 59  1  0
 20 60  1  0
 21 22  1  0
 21 61  1  0
 21 62  1  0
 22 23  1  0
 23 24  2  0
 23 25  1  0
 25 26  1  0
 25 28  1  0
 25 63  1  1
 26 27  1  0
 26 64  1  0
 26 65  1  0
 27 66  1  0
 27 67  1  0
 27 68  1  0
 28 29  1  0
 28 69  1  0
 28 70  1  0
 29 30  1  0
 29 71  1  0
 29 72  1  0
 30 31  1  0
 30 73  1  0
 30 74  1  0
 31 75  1  0
 31 76  1  0
 31 77  1  0
M  END
$$$$

     RDKit          2D

 72 72  0  0  1  0  0  0  0  0999 V2000
  -14.4521    1.1536    0.0000 C   0  0  0  0  0  0  0  0  0  0  0  0
  -12.9784    0.8741    0.0000 C   0  0  0  0  0  0  0  0  0  0  0  0
  -11.5046    0.5946    0.0000 C   0  0  0  0  0  0  0  0  0  0  0  0
  -10.0309    0.3151    0.0000 C   0  0  0  0  0  0  0  0  0  0  0  0
   -8.5572    0.0356    0.0000 C   0  0  0  0  0  0  0  0  0  0  0  0
   -7.0834   -0.2439    0.0000 C   0  0  0  0  0  0  0  0  0  0  0  0
   -5.6097   -0.5233    0.0000 C   0  0  0  0  0  0  0  0  0  0  0  0
   -4.1360   -0.8028    0.0000 C   0  0  0  0  0  0  0  0  0  0  0  0
   -2.6623   -1.0823    0.0000 C   0  0  0  0  0  0  0  0  0  0  0  0
   -1.1885   -1.3618    0.0000 C   0  0  0  0  0  0  0  0  0  0  0  0
    0.2852   -1.6413    0.0000 C   0  0  0  0  0  0  0  0  0  0  0  0
    1.7589   -1.9208    0.0000 C   0  0  0  0  0  0  0  0  0  0  0  0
    2.2538   -3.3368    0.0000 O   0  0  0  0  0  0  0  0  0  0  0  0
    2.7379   -0.7843    0.0000 O   0  0  0  0  0  0  0  0  0  0  0  0
    4.2116   -1.0637    0.0000 C   0  0  0  0  0  0  0  0  0  0  0  0
    5.6853   -1.3432    0.0000 C   0  0  0  0  0  0  0  0  0  0  0  0
    5.9648    0.1305    0.0000 C   0  0  0  0  0  0  0  0  0  0  0  0
    6.5446    1.5139    0.0000 C   0  0  0  0  0  0  0  0  0  0  0  0
    5.4081    2.4928    0.0000 C   0  0  0  0  0  0  0  0  0  0  0  0
    4.1258    1.7144    0.0000 C   0  0  0  0  0  0  0  0  0  0  0  0
    4.4699    0.2544    0.0000 O   0  0  0  0  0  0  0  0  0  0  0  0
    6.5004    3.5208    0.0000 O   0  0  0  0  0  0  0  0  0  0  0  0
    7.9368    3.0888    0.0000 C   0  0  0  0  0  0  0  0  0  0  0  0
    9.3733    2.6568    0.0000 C   0  0  0  0  0  0  0  0  0  0  0  0
   10.8097    2.2248    0.0000 O   0  0  0  0  0  0  0  0  0  0  0  0
    7.8598    0.7927    0.0000 O   0  0  0  0  0  0  0  0  0  0  0  0
    7.8929   -0.7069    0.0000 C   0  0  0  0  0  0  0  0  0  0  0  0
    7.9259   -2.2066    0.0000 C   0  0  0  0  0  0  0  0  0  0  0  0
    7.9589   -3.7062    0.0000 O   0  0  0  0  0  0  0  0  0  0  0  0
    5.4058   -2.8170    0.0000 O   0  0  0  0  0  0  0  0  0  0  0  0
  -14.7316   -0.3201    0.0000 H   0  0  0  0  0  0  0  0  0  0  0  0
  -14.1726    2.6273    0.0000 H   0  0  0  0  0  0  0  0  0  0  0  0
  -15.9258    1.4331    0.0000 H   0  0  0  0  0  0  0  0  0  0  0  0
  -12.6989    2.3478    0.0000 H   0  0  0  0  0  0  0  0  0  0  0  0
  -13.2579   -0.5996    0.0000 H   0  0  0  0  0  0  0  0  0  0  0  0
  -11.7841   -0.8791    0.0000 H   0  0  0  0  0  0  0  0  0  0  0  0
  -11.2252    2.0683    0.0000 H   0  0  0  0  0  0  0  0  0  0  0  0
   -9.7514    1.7889    0.0000 H   0  0  0  0  0  0  0  0  0  0  0  0
  -10.3104   -1.1586    0.0000 H   0  0  0  0  0  0  0  0  0  0  0  0
   -8.8367   -1.4381    0.0000 H   0  0  0  0  0  0  0  0  0  0  0  0
   -8.2777    1.5094    0.0000 H   0  0  0  0  0  0  0  0  0  0  0  0
   -6.8040    1.2299    0.0000 H   0  0  0  0  0  0  0  0  0  0  0  0
   -7.3629   -1.7176    0.0000 H   0  0  0  0  0  0  0  0  0  0  0  0
   -5.8892   -1.9971    0.0000 H   0  0  0  0  0  0  0  0  0  0  0  0
   -5.3302    0.9504    0.0000 H   0  0  0  0  0  0  0  0  0  0  0  0
   -3.8565    0.6709    0.0000 H   0  0  0  0  0  0  0  0  0  0  0  0
   -4.4155   -2.2766    0.0000 H   0  0  0  0  0  0  0  0  0  0  0  0
   -2.9417   -2.5561    0.0000 H   0  0  0  0  0  0  0  0  0  0  0  0
   -2.3828    0.3914    0.0000 H   0  0  0  0  0  0  0  0  0  0  0  0
   -0.9090    0.1119    0.0000 H   0  0  0  0  0  0  0  0  0  0  0  0
   -1.4680   -2.8355    0.0000 H   0  0  0  0  0  0  0  0  0  0  0  0
    0.0057   -3.1150    0.0000 H   0  0  0  0  0  0  0  0  0  0  0  0
    0.5647   -0.1676    0.0000 H   0  0  0  0  0  0  0  0  0  0  0  0
    4.1662   -0.2679    0.0000 H   0  0  0  0  0  0  0  0  0  0  0  0
    3.9321   -2.5375    0.0000 H   0  0  0  0  0  0  0  0  0  0  0  0
    7.1591   -1.6227    0.0000 H   0  0  0  0  0  0  0  0  0  0  0  0
    7.2540   -0.6363    0.0000 H   0  0  0  0  0  0  0  0  0  0  0  0
    7.6722    2.5031    0.0000 H   0  0  0  0  0  0  0  0  0  0  0  0
    4.4999    3.6866    0.0000 H   0  0  0  0  0  0  0  0  0  0  0  0
    2.7098    1.2196    0.0000 H   0  0  0  0  0  0  0  0  0  0  0  0
    3.4857    3.0710    0.0000 H   0  0  0  0  0  0  0  0  0  0  0  0
    8.3689    4.5253    0.0000 H   0  0  0  0  0  0  0  0  0  0  0  0
    7.5048    1.6524    0.0000 H   0  0  0  0  0  0  0  0  0  0  0  0
    8.9413    1.2204    0.0000 H   0  0  0  0  0  0  0  0  0  0  0  0
    9.8053    4.0933    0.0000 H   0  0  0  0  0  0  0  0  0  0  0  0
   11.9021    3.2528    0.0000 H   0  0  0  0  0  0  0  0  0  0  0  0
    9.3925   -0.6739    0.0000 H   0  0  0  0  0  0  0  0  0  0  0  0
    6.3932   -0.7400    0.0000 H   0  0  0  0  0  0  0  0  0  0  0  0
    6.4262   -2.2396    0.0000 H   0  0  0  0  0  0  0  0  0  0  0  0
    9.4255   -2.1736    0.0000 H   0  0  0  0  0  0  0  0  0  0  0  0
    9.2741   -4.4274    0.0000 H   0  0  0  0  0  0  0  0  0  0  0  0
    6.5424   -3.7959    0.0000 H   0  0  0  0  0  0  0  0  0  0  0  0
  1  2  1  0
  1 31  1  0
  1 32  1  0
  1 33  1  0
  2  3  1  0
  2 34  1  0
  2 35  1  0
  3  4  1  0
  3 36  1  0
  3 37  1  0
  4  5  1  0
  4 38  1  0
  4 39  1  0
  5  6  1  0
  5 40  1  0
  5 41  1  0
  6  7  1  0
  6 42  1  0
  6 43  1  0
  7  8  1  0
  7 44  1  0
  7 45  1  0
  8  9  1  0
  8 46  1  0
  8 47  1  0
  9 10  1  0
  9 48  1  0
  9 49  1  0
 10 11  1  0
 10 50  1  0
 10 51  1  0
 11 12  1  0
 11 52  1  0
 11 53  1  0
 12 13  2  0
 12 14  1  0
 14 15  1  0
 15 54  1  0
 15 55  1  0
 16 30  1  0
 16 56  1  1
 16 17  1  0
 16 15  1  0
 17 18  1  0
 17 21  1  0
 17 57  1  6
 18 19  1  0
 18 26  1  0
 18 58  1  6
 19 20  1  0
 19 59  1  1
 19 22  1  0
 20 21  1  0
 20 60  1  0
 20 61  1  0
 22 23  1  0
 23 24  1  0
 23 62  1  0
 23 63  1  0
 24 25  1  0
 24 64  1  0
 24 65  1  0
 25 66  1  0
 26 27  1  0
 27 28  1  0
 27 67  1  0
 27 68  1  0
 28 29  1  0
 28 69  1  0
 28 70  1  0
 29 71  1  0
 30 72  1  0
M  END
$$$$

     RDKit          2D

 40 39  0  0  0  0  0  0  0  0999 V2000
    8.5760   -1.1247    0.0000 C   0  0  0  0  0  0  0  0  0  0  0  0
    7.6116    0.0243    0.0000 C   0  0  0  0  0  0  0  0  0  0  0  0
    8.1244    1.4339    0.0000 C   0  0  0  0  0  0  0  0  0  0  0  0
    6.1345   -0.2364    0.0000 C   0  0  0  0  0  0  0  0  0  0  0  0
    5.6217   -1.6461    0.0000 O   0  0  0  0  0  0  0  0  0  0  0  0
    5.1701    0.9125    0.0000 O   0  0  0  0  0  0  0  0  0  0  0  0
    3.6929    0.6518    0.0000 C   0  0  0  0  0  0  0  0  0  0  0  0
    2.2158    0.3911    0.0000 C   0  0  0  0  0  0  0  0  0  0  0  0
    0.7386    0.1304    0.0000 C   0  0  0  0  0  0  0  0  0  0  0  0
   -0.7386   -0.1304    0.0000 C   0  0  0  0  0  0  0  0  0  0  0  0
   -2.2158   -0.3911    0.0000 C   0  0  0  0  0  0  0  0  0  0  0  0
   -3.6929   -0.6518    0.0000 C   0  0  0  0  0  0  0  0  0  0  0  0
   -5.1701   -0.9125    0.0000 O   0  0  0  0  0  0  0  0  0  0  0  0
   -6.1345    0.2364    0.0000 C   0  0  0  0  0  0  0  0  0  0  0  0
   -5.6217    1.6461    0.0000 O   0  0  0  0  0  0  0  0  0  0  0  0
   -7.6116   -0.0243    0.0000 C   0  0  0  0  0  0  0  0  0  0  0  0
   -8.1244   -1.4339    0.0000 C   0  0  0  0  0  0  0  0  0  0  0  0
   -8.5760    1.1247    0.0000 C   0  0  0  0  0  0  0  0  0  0  0  0
    7.4271   -2.0890    0.0000 H   0  0  0  0  0  0  0  0  0  0  0  0
    9.7249   -0.1603    0.0000 H   0  0  0  0  0  0  0  0  0  0  0  0
    9.5404   -2.2736    0.0000 H   0  0  0  0  0  0  0  0  0  0  0  0
    7.1601    2.5828    0.0000 H   0  0  0  0  0  0  0  0  0  0  0  0
    9.6016    1.6946    0.0000 H   0  0  0  0  0  0  0  0  0  0  0  0
    3.4322    2.1289    0.0000 H   0  0  0  0  0  0  0  0  0  0  0  0
    3.9536   -0.8254    0.0000 H   0  0  0  0  0  0  0  0  0  0  0  0
    2.4765   -1.0861    0.0000 H   0  0  0  0  0  0  0  0  0  0  0  0
    1.9551    1.8682    0.0000 H   0  0  0  0  0  0  0  0  0  0  0  0
    0.4779    1.6075    0.0000 H   0  0  0  0  0  0  0  0  0  0  0  0
    0.9993   -1.3468    0.0000 H   0  0  0  0  0  0  0  0  0  0  0  0
   -0.9993    1.3468    0.0000 H   0  0  0  0  0  0  0  0  0  0  0  0
   -0.4779   -1.6075    0.0000 H   0  0  0  0  0  0  0  0  0  0  0  0
   -1.9551   -1.8682    0.0000 H   0  0  0  0  0  0  0  0  0  0  0  0
   -2.4765    1.0861    0.0000 H   0  0  0  0  0  0  0  0  0  0  0  0
   -3.9536    0.8254    0.0000 H   0  0  0  0  0  0  0  0  0  0  0  0
   -3.4322   -2.1289    0.0000 H   0  0  0  0  0  0  0  0  0  0  0  0
   -9.6016   -1.6946    0.0000 H   0  0  0  0  0  0  0  0  0  0  0  0
   -7.1601   -2.5828    0.0000 H   0  0  0  0  0  0  0  0  0  0  0  0
   -9.7249    0.1603    0.0000 H   0  0  0  0  0  0  0  0  0  0  0  0
   -7.4271    2.0890    0.0000 H   0  0  0  0  0  0  0  0  0  0  0  0
   -9.5404    2.2736    0.0000 H   0  0  0  0  0  0  0  0  0  0  0  0
  1  2  1  0
  1 19  1  0
  1 20  1  0
  1 21  1  0
  2  3  2  0
  2  4  1  0
  3 22  1  0
  3 23  1  0
  4  5  2  0
  4  6  1  0
  6  7  1  0
  7  8  1  0
  7 24  1  0
  7 25  1  0
  8  9  1  0
  8 26  1  0
  8 27  1  0
  9 10  1  0
  9 28  1  0
  9 29  1  0
 10 11  1  0
 10 30  1  0
 10 31  1  0
 11 12  1  0
 11 32  1  0
 11 33  1  0
 12 13  1  0
 12 34  1  0
 12 35  1  0
 13 14  1  0
 14 15  2  0
 14 16  1  0
 16 17  2  0
 16 18  1  0
 17 36  1  0
 17 37  1  0
 18 38  1  0
 18 39  1  0
 18 40  1  0
M  END
$$$$

     RDKit          2D

 39 41  0  0  1  0  0  0  0  0999 V2000
    1.9939   -1.4104    0.0000 C   0  0  0  0  0  0  0  0  0  0  0  0
    1.8219    0.0797    0.0000 C   0  0  0  0  0  0  0  0  0  0  0  0
    2.1698    1.5388    0.0000 C   0  0  0  0  0  0  0  0  0  0  0  0
    1.0801    2.5696    0.0000 C   0  0  0  0  0  0  0  0  0  0  0  0
   -0.3574    2.1414    0.0000 C   0  0  0  0  0  0  0  0  0  0  0  0
   -0.7054    0.6823    0.0000 C   0  0  0  0  0  0  0  0  0  0  0  0
    0.3843   -0.3486    0.0000 C   0  0  0  0  0  0  0  0  0  0  0  0
    0.6599   -1.8230    0.0000 C   0  0  0  0  0  0  0  0  0  0  0  0
   -0.6572   -2.5408    0.0000 C   0  0  0  0  0  0  0  0  0  0  0  0
   -1.7469   -1.5099    0.0000 C   0  0  0  0  0  0  0  0  0  0  0  0
   -1.1032   -0.1551    0.0000 C   0  0  0  0  0  0  0  0  0  0  0  0
   -2.0225   -0.0355    0.0000 C   0  0  0  0  0  0  0  0  0  0  0  0
   -3.4601   -0.4637    0.0000 C   0  0  0  0  0  0  0  0  0  0  0  0
   -2.5986    1.3495    0.0000 C   0  0  0  0  0  0  0  0  0  0  0  0
    3.3192   -0.0096    0.0000 C   0  0  0  0  0  0  0  0  0  0  0  0
    3.4939   -1.4213    0.0000 H   0  0  0  0  0  0  0  0  0  0  0  0
    1.2477   -1.6908    0.0000 H   0  0  0  0  0  0  0  0  0  0  0  0
    2.1660   -2.9005    0.0000 H   0  0  0  0  0  0  0  0  0  0  0  0
    3.6087    1.1150    0.0000 H   0  0  0  0  0  0  0  0  0  0  0  0
    2.9958    2.7909    0.0000 H   0  0  0  0  0  0  0  0  0  0  0  0
    2.2846    3.4637    0.0000 H   0  0  0  0  0  0  0  0  0  0  0  0
    0.4088    3.9110    0.0000 H   0  0  0  0  0  0  0  0  0  0  0  0
   -1.4471    3.1723    0.0000 H   0  0  0  0  0  0  0  0  0  0  0  0
    2.1584   -1.7554    0.0000 H   0  0  0  0  0  0  0  0  0  0  0  0
    1.2360   -3.2080    0.0000 H   0  0  0  0  0  0  0  0  0  0  0  0
    0.1943   -3.7757    0.0000 H   0  0  0  0  0  0  0  0  0  0  0  0
   -1.7963   -3.5167    0.0000 H   0  0  0  0  0  0  0  0  0  0  0  0
   -3.1767   -1.9632    0.0000 H   0  0  0  0  0  0  0  0  0  0  0  0
   -2.3552    0.6710    0.0000 H   0  0  0  0  0  0  0  0  0  0  0  0
   -0.9357    1.3356    0.0000 H   0  0  0  0  0  0  0  0  0  0  0  0
   -4.0603    0.9110    0.0000 H   0  0  0  0  0  0  0  0  0  0  0  0
   -3.2103   -1.9427    0.0000 H   0  0  0  0  0  0  0  0  0  0  0  0
   -4.8976   -0.8919    0.0000 H   0  0  0  0  0  0  0  0  0  0  0  0
   -4.0435    0.9464    0.0000 H   0  0  0  0  0  0  0  0  0  0  0  0
   -1.2943    2.0901    0.0000 H   0  0  0  0  0  0  0  0  0  0  0  0
   -3.1748    2.7344    0.0000 H   0  0  0  0  0  0  0  0  0  0  0  0
    3.4131   -1.5067    0.0000 H   0  0  0  0  0  0  0  0  0  0  0  0
    3.5903    1.4657    0.0000 H   0  0  0  0  0  0  0  0  0  0  0  0
    4.8165   -0.0989    0.0000 H   0  0  0  0  0  0  0  0  0  0  0  0
  1  2  1  0
  1 16  1  0
  1 17  1  0
  1 18  1  0
  2  3  1  0
  7  2  1  1
  2 15  1  0
  3  4  1  0
  3 19  1  0
  3 20  1  0
  4  5  1  0
  4 21  1  0
  4 22  1  0
  5  6  2  0
  5 23  1  0
  6 12  1  0
  7  6  1  0
  7  8  1  0
  7 11  1  0
  8  9  1  0
  8 24  1  0
  8 25  1  0
  9 10  1  0
  9 26  1  0
  9 27  1  0
 10 11  1  0
 10 12  1  0
 10 28  1  1
 11 29  1  0
 11 30  1  0
 12 13  1  0
 12 14  1  0
 13 31  1  0
 13 32  1  0
 13 33  1  0
 14 34  1  0
 14 35  1  0
 14 36  1  0
 15 37  1  0
 15 38  1  0
 15 39  1  0
M  END
$$$$

     RDKit          2D

 30 29  0  0  0  0  0  0  0  0999 V2000
   -1.5000   -1.2990    0.0000 C   0  0  0  0  0  0  0  0  0  0  0  0
   -3.0000   -1.2990    0.0000 C   0  0  0  0  0  0  0  0  0  0  0  0
   -3.7500   -0.0000    0.0000 C   0  0  0  0  0  0  0  0  0  0  0  0
   -3.0000    1.2990    0.0000 C   0  0  0  0  0  0  0  0  0  0  0  0
   -1.5000    1.2990    0.0000 C   0  0  0  0  0  0  0  0  0  0  0  0
   -0.7500   -0.0000    0.0000 C   0  0  0  0  0  0  0  0  0  0  0  0
    0.7500    0.0000    0.0000 C   0  0  0  0  0  0  0  0  0  0  0  0
    1.5000   -1.2990    0.0000 C   0  0  0  0  0  0  0  0  0  0  0  0
    3.0000   -1.2990    0.0000 C   0  0  0  0  0  0  0  0  0  0  0  0
    3.7500    0.0000    0.0000 C   0  0  0  0  0  0  0  0  0  0  0  0
    3.0000    1.2990    0.0000 C   0  0  0  0  0  0  0  0  0  0  0  0
    1.5000    1.2990    0.0000 C   0  0  0  0  0  0  0  0  0  0  0  0
    5.2500    0.0000    0.0000 N   0  0  0  0  0  0  0  0  0  0  0  0
   -5.2500    0.0000    0.0000 N   0  0  0  0  0  0  0  0  0  0  0  0
   -0.7500    3.5981    0.0000 Cl  0  0  0  0  0  0  0  0  0  0  0  0
   -0.7500    4.5981    0.0000 Cl  0  0  0  0  0  0  0  0  0  0  0  0
   -0.7500   -2.5981    0.0000 H   0  0  0  0  0  0  0  0  0  0  0  0
   -3.7500   -2.5981    0.0000 H   0  0  0  0  0  0  0  0  0  0  0  0
   -3.7500    2.5981    0.0000 H   0  0  0  0  0  0  0  0  0  0  0  0
   -0.7500    2.5981    0.0000 H   0  0  0  0  0  0  0  0  0  0  0  0
    0.7500   -2.5981    0.0000 H   0  0  0  0  0  0  0  0  0  0  0  0
    3.7500   -2.5981    0.0000 H   0  0  0  0  0  0  0  0  0  0  0  0
    3.7500    2.5981    0.0000 H   0  0  0  0  0  0  0  0  0  0  0  0
    0.7500    2.5981    0.0000 H   0  0  0  0  0  0  0  0  0  0  0  0
    6.0000    1.2990    0.0000 H   0  0  0  0  0  0  0  0  0  0  0  0
    6.0000   -1.2990    0.0000 H   0  0  0  0  0  0  0  0  0  0  0  0
   -6.0000    1.2990    0.0000 H   0  0  0  0  0  0  0  0  0  0  0  0
   -6.0000   -1.2990    0.0000 H   0  0  0  0  0  0  0  0  0  0  0  0
    0.7500    3.5981    0.0000 H   0  0  0  0  0  0  0  0  0  0  0  0
    0.7500    4.5981    0.0000 H   0  0  0  0  0  0  0  0  0  0  0  0
  1  2  2  0
  1  6  1  0
  1 17  1  0
  2  3  1  0
  2 18  1  0
  3  4  2  0
  3 14  1  0
  4  5  1  0
  4 19  1  0
  5  6  2  0
  5 20  1  0
  6  7  1  0
  7  8  2  0
  7 12  1  0
  8  9  1  0
  8 21  1  0
  9 10  2  0
  9 22  1  0
 10 11  1  0
 10 13  1  0
 11 12  2  0
 11 23  1  0
 12 24  1  0
 13 25  1  0
 13 26  1  0
 14 27  1  0
 14 28  1  0
 15 29  1  0
 16 30  1  0
M  END
$$$$

     RDKit          2D

 52 54  0  0  0  0  0  0  0  0999 V2000
   -5.3432    1.4144    0.0000 C   0  0  0  0  0  0  0  0  0  0  0  0
   -5.6702   -0.0495    0.0000 C   0  0  0  0  0  0  0  0  0  0  0  0
   -4.7295   -1.2179    0.0000 C   0  0  0  0  0  0  0  0  0  0  0  0
   -5.4734   -2.5204    0.0000 C   0  0  0  0  0  0  0  0  0  0  0  0
   -4.7174   -3.8159    0.0000 C   0  0  0  0  0  0  0  0  0  0  0  0
   -3.2174   -3.8089    0.0000 C   0  0  0  0  0  0  0  0  0  0  0  0
   -2.4734   -2.5064    0.0000 C   0  0  0  0  0  0  0  0  0  0  0  0
   -3.2295   -1.2109    0.0000 C   0  0  0  0  0  0  0  0  0  0  0  0
   -2.2997   -0.0338    0.0000 C   0  0  0  0  0  0  0  0  0  0  0  0
   -2.6403    1.4270    0.0000 C   0  0  0  0  0  0  0  0  0  0  0  0
   -1.4049    2.2778    0.0000 C   0  0  0  0  0  0  0  0  0  0  0  0
   -1.5240    3.7730    0.0000 C   0  0  0  0  0  0  0  0  0  0  0  0
   -2.8785    4.4176    0.0000 C   0  0  0  0  0  0  0  0  0  0  0  0
   -4.1139    3.5668    0.0000 C   0  0  0  0  0  0  0  0  0  0  0  0
   -3.9948    2.0715    0.0000 C   0  0  0  0  0  0  0  0  0  0  0  0
   -1.3590   -1.2022    0.0000 N   0  0  0  0  0  0  0  0  0  0  0  0
    0.1231   -0.9717    0.0000 C   0  0  0  0  0  0  0  0  0  0  0  0
    1.6053   -0.7412    0.0000 C   0  0  0  0  0  0  0  0  0  0  0  0
    3.0875   -0.5107    0.0000 C   0  0  0  0  0  0  0  0  0  0  0  0
    4.5697   -0.2802    0.0000 C   0  0  0  0  0  0  0  0  0  0  0  0
    6.0519   -0.0498    0.0000 C   0  0  0  0  0  0  0  0  0  0  0  0
    7.5341    0.1807    0.0000 C   0  0  0  0  0  0  0  0  0  0  0  0
    9.0163    0.4112    0.0000 C   0  0  0  0  0  0  0  0  0  0  0  0
    9.5578    1.8101    0.0000 O   0  0  0  0  0  0  0  0  0  0  0  0
    9.9570   -0.7572    0.0000 O   0  0  0  0  0  0  0  0  0  0  0  0
   -6.8329    1.5903    0.0000 H   0  0  0  0  0  0  0  0  0  0  0  0
   -5.6838    2.8752    0.0000 H   0  0  0  0  0  0  0  0  0  0  0  0
   -6.5999   -1.2266    0.0000 H   0  0  0  0  0  0  0  0  0  0  0  0
   -7.0931    0.4251    0.0000 H   0  0  0  0  0  0  0  0  0  0  0  0
   -6.9734   -2.5274    0.0000 H   0  0  0  0  0  0  0  0  0  0  0  0
   -5.4613   -5.1185    0.0000 H   0  0  0  0  0  0  0  0  0  0  0  0
   -2.4613   -5.1045    0.0000 H   0  0  0  0  0  0  0  0  0  0  0  0
   -1.5877   -2.5023    0.0000 H   0  0  0  0  0  0  0  0  0  0  0  0
   -1.0415    0.7828    0.0000 H   0  0  0  0  0  0  0  0  0  0  0  0
   -0.0505    1.6333    0.0000 H   0  0  0  0  0  0  0  0  0  0  0  0
   -0.2886    4.6238    0.0000 H   0  0  0  0  0  0  0  0  0  0  0  0
   -2.9976    5.9128    0.0000 H   0  0  0  0  0  0  0  0  0  0  0  0
   -5.4684    4.2113    0.0000 H   0  0  0  0  0  0  0  0  0  0  0  0
   -1.4584   -1.9931    0.0000 H   0  0  0  0  0  0  0  0  0  0  0  0
    0.3536   -2.4539    0.0000 H   0  0  0  0  0  0  0  0  0  0  0  0
    0.0751    0.5275    0.0000 H   0  0  0  0  0  0  0  0  0  0  0  0
    1.8358   -2.2234    0.0000 H   0  0  0  0  0  0  0  0  0  0  0  0
    1.3748    0.7410    0.0000 H   0  0  0  0  0  0  0  0  0  0  0  0
    3.3180   -1.9929    0.0000 H   0  0  0  0  0  0  0  0  0  0  0  0
    2.8570    0.9715    0.0000 H   0  0  0  0  0  0  0  0  0  0  0  0
    4.8002   -1.7624    0.0000 H   0  0  0  0  0  0  0  0  0  0  0  0
    4.3392    1.2019    0.0000 H   0  0  0  0  0  0  0  0  0  0  0  0
    5.8214    1.4324    0.0000 H   0  0  0  0  0  0  0  0  0  0  0  0
    6.2824   -1.5320    0.0000 H   0  0  0  0  0  0  0  0  0  0  0  0
    7.7646   -1.3015    0.0000 H   0  0  0  0  0  0  0  0  0  0  0  0
    7.3036    1.6629    0.0000 H   0  0  0  0  0  0  0  0  0  0  0  0
   11.4391   -0.5267    0.0000 H   0  0  0  0  0  0  0  0  0  0  0  0
  1  2  1  0
  1 15  1  0
  1 26  1  0
  1 27  1  0
  2  3  1  0
  2 28  1  0
  2 29  1  0
  3  4  2  0
  3  8  1  0
  4  5  1  0
  4 30  1  0
  5  6  2  0
  5 31  1  0
  6  7  1  0
  6 32  1  0
  7  8  2  0
  7 33  1  0
  8  9  1  0
  9 10  1  0
  9 16  1  0
  9 34  1  0
 10 11  2  0
 10 15  1  0
 11 12  1  0
 11 35  1  0
 12 13  2  0
 12 36  1  0
 13 14  1  0
 13 37  1  0
 14 15  2  0
 14 38  1  0
 16 17  1  0
 16 39  1  0
 17 18  1  0
 17 40  1  0
 17 41  1  0
 18 19  1  0
 18 42  1  0
 18 43  1  0
 19 20  1  0
 19 44  1  0
 19 45  1  0
 20 21  1  0
 20 46  1  0
 20 47  1  0
 21 22  1  0
 21 48  1  0
 21 49  1  0
 22 23  1  0
 22 50  1  0
 22 51  1  0
 23 24  2  0
 23 25  1  0
 25 52  1  0
M  END
$$$$

     RDKit          2D

 48 51  0  0  1  0  0  0  0  0999 V2000
    3.0827    0.2861    0.0000 C   0  0  0  0  0  0  0  0  0  0  0  0
    1.5832    0.3267    0.0000 C   0  0  0  0  0  0  0  0  0  0  0  0
    2.3681    1.6050    0.0000 C   0  0  0  0  0  0  0  0  0  0  0  0
    3.8675    1.5644    0.0000 C   0  0  0  0  0  0  0  0  0  0  0  0
    4.5821    0.2456    0.0000 C   0  0  0  0  0  0  0  0  0  0  0  0
    6.0816    0.2050    0.0000 O   0  0  0  0  0  0  0  0  0  0  0  0
    3.7973   -1.0327    0.0000 C   0  0  0  0  0  0  0  0  0  0  0  0
    2.2978   -0.9922    0.0000 C   0  0  0  0  0  0  0  0  0  0  0  0
    1.5130   -2.2705    0.0000 C   0  0  0  0  0  0  0  0  0  0  0  0
    0.0136   -2.2299    0.0000 C   0  0  0  0  0  0  0  0  0  0  0  0
   -0.7011   -0.9111    0.0000 C   0  0  0  0  0  0  0  0  0  0  0  0
    0.0838    0.3672    0.0000 C   0  0  0  0  0  0  0  0  0  0  0  0
   -0.6308    1.6860    0.0000 C   0  0  0  0  0  0  0  0  0  0  0  0
   -2.1303    1.7266    0.0000 C   0  0  0  0  0  0  0  0  0  0  0  0
   -2.9151    0.4483    0.0000 C   0  0  0  0  0  0  0  0  0  0  0  0
   -2.2005   -0.8706    0.0000 C   0  0  0  0  0  0  0  0  0  0  0  0
   -3.2340   -1.9577    0.0000 C   0  0  0  0  0  0  0  0  0  0  0  0
   -4.5873   -1.3108    0.0000 C   0  0  0  0  0  0  0  0  0  0  0  0
   -4.3902    0.1762    0.0000 C   0  0  0  0  0  0  0  0  0  0  0  0
   -5.5953    1.0694    0.0000 O   0  0  0  0  0  0  0  0  0  0  0  0
   -3.7637    1.6852    0.0000 C   0  0  0  0  0  0  0  0  0  0  0  0
    4.5119   -2.3515    0.0000 O   0  0  0  0  0  0  0  0  0  0  0  0
    3.4759    0.9796    0.0000 H   0  0  0  0  0  0  0  0  0  0  0  0
    3.7510   -1.0568    0.0000 H   0  0  0  0  0  0  0  0  0  0  0  0
    4.5278   -0.1160    0.0000 H   0  0  0  0  0  0  0  0  0  0  0  0
    2.6684    3.0746    0.0000 H   0  0  0  0  0  0  0  0  0  0  0  0
    1.1477    2.4771    0.0000 H   0  0  0  0  0  0  0  0  0  0  0  0
    5.2904    2.0392    0.0000 H   0  0  0  0  0  0  0  0  0  0  0  0
    3.6471    3.0481    0.0000 H   0  0  0  0  0  0  0  0  0  0  0  0
    1.2127   -3.7401    0.0000 H   0  0  0  0  0  0  0  0  0  0  0  0
    2.9082   -2.8214    0.0000 H   0  0  0  0  0  0  0  0  0  0  0  0
   -1.2522   -3.0349    0.0000 H   0  0  0  0  0  0  0  0  0  0  0  0
    0.2340   -3.7136    0.0000 H   0  0  0  0  0  0  0  0  0  0  0  0
   -1.4859   -2.1894    0.0000 H   0  0  0  0  0  0  0  0  0  0  0  0
    0.8686    1.6455    0.0000 H   0  0  0  0  0  0  0  0  0  0  0  0
   -0.8513    3.1697    0.0000 H   0  0  0  0  0  0  0  0  0  0  0  0
    0.6349    2.4910    0.0000 H   0  0  0  0  0  0  0  0  0  0  0  0
   -3.3507    2.5987    0.0000 H   0  0  0  0  0  0  0  0  0  0  0  0
   -1.8300    3.1962    0.0000 H   0  0  0  0  0  0  0  0  0  0  0  0
   -1.5536    0.4828    0.0000 H   0  0  0  0  0  0  0  0  0  0  0  0
   -2.3013   -3.1325    0.0000 H   0  0  0  0  0  0  0  0  0  0  0  0
   -4.0188   -3.2360    0.0000 H   0  0  0  0  0  0  0  0  0  0  0  0
   -5.0892   -2.7244    0.0000 H   0  0  0  0  0  0  0  0  0  0  0  0
   -6.0456   -0.9594    0.0000 H   0  0  0  0  0  0  0  0  0  0  0  0
   -5.0948    0.9937    0.0000 H   0  0  0  0  0  0  0  0  0  0  0  0
   -2.5268    2.5337    0.0000 H   0  0  0  0  0  0  0  0  0  0  0  0
   -4.6122    2.9221    0.0000 H   0  0  0  0  0  0  0  0  0  0  0  0
    6.0114   -2.3921    0.0000 H   0  0  0  0  0  0  0  0  0  0  0  0
  1 23  1  0
  1 24  1  0
  1 25  1  0
  2  3  1  0
  2  8  1  0
  2 12  1  0
  2  1  1  1
  3  4  1  0
  3 26  1  0
  3 27  1  0
  4  5  1  0
  4 28  1  0
  4 29  1  0
  5  7  1  0
  5  6  2  0
  7  8  2  0
  7 22  1  0
  8  9  1  0
  9 10  1  0
  9 30  1  0
  9 31  1  0
 10 11  1  0
 10 32  1  0
 10 33  1  0
 11 12  1  0
 11 16  1  0
 11 34  1  1
 12 13  1  0
 12 35  1  6
 13 14  1  0
 13 36  1  0
 13 37  1  0
 14 15  1  0
 14 38  1  0
 14 39  1  0
 15 16  1  0
 15 19  1  0
 15 21  1  1
 16 17  1  0
 16 40  1  1
 17 18  1  0
 17 41  1  0
 17 42  1  0
 18 19  1  0
 18 43  1  0
 18 44  1  0
 19 20  2  0
 21 45  1  0
 21 46  1  0
 21 47  1  0
 22 48  1  0
M  END
$$$$

     RDKit          2D

 38 39  0  0  1  0  0  0  0  0999 V2000
   -2.5927   -1.8789    0.0000 C   0  0  0  0  0  0  0  0  0  0  0  0
   -1.8108   -0.5988    0.0000 C   0  0  0  0  0  0  0  0  0  0  0  0
   -3.2072   -0.0511    0.0000 C   0  0  0  0  0  0  0  0  0  0  0  0
   -3.4311    1.4321    0.0000 C   0  0  0  0  0  0  0  0  0  0  0  0
   -4.8275    1.9799    0.0000 O   0  0  0  0  0  0  0  0  0  0  0  0
   -2.2585    2.3676    0.0000 C   0  0  0  0  0  0  0  0  0  0  0  0
   -0.8621    1.8198    0.0000 C   0  0  0  0  0  0  0  0  0  0  0  0
   -0.6382    0.3366    0.0000 C   0  0  0  0  0  0  0  0  0  0  0  0
    0.7582   -0.2111    0.0000 C   0  0  0  0  0  0  0  0  0  0  0  0
    1.9307    0.7244    0.0000 C   0  0  0  0  0  0  0  0  0  0  0  0
    1.7069    2.2076    0.0000 C   0  0  0  0  0  0  0  0  0  0  0  0
    0.3105    2.7553    0.0000 C   0  0  0  0  0  0  0  0  0  0  0  0
    2.6484   -0.5928    0.0000 C   0  0  0  0  0  0  0  0  0  0  0  0
    1.8665   -1.8729    0.0000 C   0  0  0  0  0  0  0  0  0  0  0  0
    4.1479   -0.6299    0.0000 C   0  0  0  0  0  0  0  0  0  0  0  0
   -0.4144   -1.1466    0.0000 C   0  0  0  0  0  0  0  0  0  0  0  0
   -3.3186   -1.5494    0.0000 H   0  0  0  0  0  0  0  0  0  0  0  0
   -1.6595   -2.4489    0.0000 H   0  0  0  0  0  0  0  0  0  0  0  0
   -3.3746   -3.1590    0.0000 H   0  0  0  0  0  0  0  0  0  0  0  0
   -1.3046   -1.5681    0.0000 H   0  0  0  0  0  0  0  0  0  0  0  0
   -3.4591   -0.8074    0.0000 H   0  0  0  0  0  0  0  0  0  0  0  0
   -4.7068   -0.0140    0.0000 H   0  0  0  0  0  0  0  0  0  0  0  0
   -2.4823    3.8508    0.0000 H   0  0  0  0  0  0  0  0  0  0  0  0
    1.7537   -1.3331    0.0000 H   0  0  0  0  0  0  0  0  0  0  0  0
    0.3093   -1.6423    0.0000 H   0  0  0  0  0  0  0  0  0  0  0  0
    3.2837    1.3721    0.0000 H   0  0  0  0  0  0  0  0  0  0  0  0
    2.0038    3.6779    0.0000 H   0  0  0  0  0  0  0  0  0  0  0  0
    3.2064    2.1705    0.0000 H   0  0  0  0  0  0  0  0  0  0  0  0
   -0.8144    3.7476    0.0000 H   0  0  0  0  0  0  0  0  0  0  0  0
    1.0924    4.0354    0.0000 H   0  0  0  0  0  0  0  0  0  0  0  0
    2.5841   -3.1901    0.0000 H   0  0  0  0  0  0  0  0  0  0  0  0
    0.3736   -2.0189    0.0000 H   0  0  0  0  0  0  0  0  0  0  0  0
    4.1108   -2.1295    0.0000 H   0  0  0  0  0  0  0  0  0  0  0  0
    4.3675    0.8539    0.0000 H   0  0  0  0  0  0  0  0  0  0  0  0
    5.6475   -0.6671    0.0000 H   0  0  0  0  0  0  0  0  0  0  0  0
   -1.7994   -1.7226    0.0000 H   0  0  0  0  0  0  0  0  0  0  0  0
    1.0505   -1.4692    0.0000 H   0  0  0  0  0  0  0  0  0  0  0  0
   -0.1905   -2.6298    0.0000 H   0  0  0  0  0  0  0  0  0  0  0  0
  1  2  1  0
  1 17  1  0
  1 18  1  0
  1 19  1  0
  2  3  1  0
  2  8  1  0
  2 20  1  1
  3  4  1  0
  3 21  1  0
  3 22  1  0
  4  5  2  0
  4  6  1  0
  6  7  2  0
  6 23  1  0
  7  8  1  0
  7 12  1  0
  8  9  1  0
  8 16  1  6
  9 10  1  0
  9 24  1  0
  9 25  1  0
 10 11  1  0
 10 26  1  6
 10 13  1  0
 11 12  1  0
 11 27  1  0
 11 28  1  0
 12 29  1  0
 12 30  1  0
 13 14  2  0
 13 15  1  0
 14 31  1  0
 14 32  1  0
 15 33  1  0
 15 34  1  0
 15 35  1  0
 16 36  1  0
 16 37  1  0
 16 38  1  0
M  END
$$$$

     RDKit          2D

 33 32  0  0  0  0  0  0  0  0999 V2000
    7.0225   -0.0704    0.0000 C   0  0  0  0  0  0  0  0  0  0  0  0
    5.5227   -0.0470    0.0000 C   0  0  0  0  0  0  0  0  0  0  0  0
    4.0229   -0.0235    0.0000 C   0  0  0  0  0  0  0  0  0  0  0  0
    2.5230   -0.0001    0.0000 C   0  0  0  0  0  0  0  0  0  0  0  0
    1.0232    0.0234    0.0000 C   0  0  0  0  0  0  0  0  0  0  0  0
   -0.4766    0.0468    0.0000 C   0  0  0  0  0  0  0  0  0  0  0  0
   -1.9764    0.0703    0.0000 C   0  0  0  0  0  0  0  0  0  0  0  0
   -3.4762    0.0937    0.0000 C   0  0  0  0  0  0  0  0  0  0  0  0
   -4.9760    0.1172    0.0000 C   0  0  0  0  0  0  0  0  0  0  0  0
   -6.4759    0.1406    0.0000 C   0  0  0  0  0  0  0  0  0  0  0  0
   -7.9757    0.1641    0.0000 O   0  0  0  0  0  0  0  0  0  0  0  0
    6.9990   -1.5702    0.0000 H   0  0  0  0  0  0  0  0  0  0  0  0
    7.0459    1.4294    0.0000 H   0  0  0  0  0  0  0  0  0  0  0  0
    8.5223   -0.0939    0.0000 H   0  0  0  0  0  0  0  0  0  0  0  0
    5.4992   -1.5468    0.0000 H   0  0  0  0  0  0  0  0  0  0  0  0
    5.5461    1.4528    0.0000 H   0  0  0  0  0  0  0  0  0  0  0  0
    4.0463    1.4763    0.0000 H   0  0  0  0  0  0  0  0  0  0  0  0
    3.9994   -1.5233    0.0000 H   0  0  0  0  0  0  0  0  0  0  0  0
    2.4996   -1.4999    0.0000 H   0  0  0  0  0  0  0  0  0  0  0  0
    2.5465    1.4997    0.0000 H   0  0  0  0  0  0  0  0  0  0  0  0
    1.0467    1.5232    0.0000 H   0  0  0  0  0  0  0  0  0  0  0  0
    0.9998   -1.4764    0.0000 H   0  0  0  0  0  0  0  0  0  0  0  0
   -0.5000   -1.4530    0.0000 H   0  0  0  0  0  0  0  0  0  0  0  0
   -0.4531    1.5466    0.0000 H   0  0  0  0  0  0  0  0  0  0  0  0
   -1.9530    1.5701    0.0000 H   0  0  0  0  0  0  0  0  0  0  0  0
   -1.9999   -1.4295    0.0000 H   0  0  0  0  0  0  0  0  0  0  0  0
   -3.4997   -1.4061    0.0000 H   0  0  0  0  0  0  0  0  0  0  0  0
   -3.4528    1.5935    0.0000 H   0  0  0  0  0  0  0  0  0  0  0  0
   -4.9526    1.6170    0.0000 H   0  0  0  0  0  0  0  0  0  0  0  0
   -4.9995   -1.3826    0.0000 H   0  0  0  0  0  0  0  0  0  0  0  0
   -6.4993   -1.3592    0.0000 H   0  0  0  0  0  0  0  0  0  0  0  0
   -6.4524    1.6404    0.0000 H   0  0  0  0  0  0  0  0  0  0  0  0
   -8.7459   -1.1231    0.0000 H   0  0  0  0  0  0  0  0  0  0  0  0
  1  2  1  0
  1 12  1  0
  1 13  1  0
  1 14  1  0
  2  3  1  0
  2 15  1  0
  2 16  1  0
  3  4  1  0
  3 17  1  0
  3 18  1  0
  4  5  1  0
  4 19  1  0
  4 20  1  0
  5  6  1  0
  5 21  1  0
  5 22  1  0
  6  7  1  0
  6 23  1  0
  6 24  1  0
  7  8  1  0
  7 25  1  0
  7 26  1  0
  8  9  1  0
  8 27  1  0
  8 28  1  0
  9 10  1  0
  9 29  1  0
  9 30  1  0
 10 11  1  0
 10 31  1  0
 10 32  1  0
 11 33  1  0
M  END
$$$$

     RDKit          2D

 32 32  0  0  0  0  0  0  0  0999 V2000
    1.0382   -3.4755    0.0000 C   0  0  0  0  0  0  0  0  0  0  0  0
    1.7680   -2.1651    0.0000 O   0  0  0  0  0  0  0  0  0  0  0  0
    0.9981   -0.8778    0.0000 C   0  0  0  0  0  0  0  0  0  0  0  0
   -0.5018   -0.9009    0.0000 C   0  0  0  0  0  0  0  0  0  0  0  0
   -1.2717    0.3863    0.0000 C   0  0  0  0  0  0  0  0  0  0  0  0
   -0.5419    1.6968    0.0000 C   0  0  0  0  0  0  0  0  0  0  0  0
    0.9579    1.7200    0.0000 C   0  0  0  0  0  0  0  0  0  0  0  0
    1.7279    0.4327    0.0000 C   0  0  0  0  0  0  0  0  0  0  0  0
    3.2277    0.4559    0.0000 O   0  0  0  0  0  0  0  0  0  0  0  0
    3.9977   -0.8314    0.0000 C   0  0  0  0  0  0  0  0  0  0  0  0
    1.6878    3.0305    0.0000 O   0  0  0  0  0  0  0  0  0  0  0  0
    3.1876    3.0536    0.0000 C   0  0  0  0  0  0  0  0  0  0  0  0
   -2.7716    0.3632    0.0000 C   0  0  0  0  0  0  0  0  0  0  0  0
   -4.2714    0.3400    0.0000 C   0  0  0  0  0  0  0  0  0  0  0  0
   -5.7712    0.3168    0.0000 N   0  0  0  0  0  0  0  0  0  0  0  0
    2.3487   -4.2054    0.0000 H   0  0  0  0  0  0  0  0  0  0  0  0
   -0.2723   -2.7457    0.0000 H   0  0  0  0  0  0  0  0  0  0  0  0
    0.3083   -4.7860    0.0000 H   0  0  0  0  0  0  0  0  0  0  0  0
   -1.2316   -2.2114    0.0000 H   0  0  0  0  0  0  0  0  0  0  0  0
   -1.3119    2.9841    0.0000 H   0  0  0  0  0  0  0  0  0  0  0  0
    5.2850   -0.0615    0.0000 H   0  0  0  0  0  0  0  0  0  0  0  0
    2.7104   -1.6014    0.0000 H   0  0  0  0  0  0  0  0  0  0  0  0
    4.7677   -2.1187    0.0000 H   0  0  0  0  0  0  0  0  0  0  0  0
    3.1644    4.5535    0.0000 H   0  0  0  0  0  0  0  0  0  0  0  0
    3.2108    1.5538    0.0000 H   0  0  0  0  0  0  0  0  0  0  0  0
    4.6874    3.0768    0.0000 H   0  0  0  0  0  0  0  0  0  0  0  0
   -2.7484   -1.1366    0.0000 H   0  0  0  0  0  0  0  0  0  0  0  0
   -2.7947    1.8630    0.0000 H   0  0  0  0  0  0  0  0  0  0  0  0
   -4.2946    1.8398    0.0000 H   0  0  0  0  0  0  0  0  0  0  0  0
   -4.2482   -1.1598    0.0000 H   0  0  0  0  0  0  0  0  0  0  0  0
   -6.5412    1.6041    0.0000 H   0  0  0  0  0  0  0  0  0  0  0  0
   -6.5011   -0.9936    0.0000 H   0  0  0  0  0  0  0  0  0  0  0  0
  1  2  1  0
  1 16  1  0
  1 17  1  0
  1 18  1  0
  2  3  1  0
  3  4  2  0
  3  8  1  0
  4  5  1  0
  4 19  1  0
  5  6  2  0
  5 13  1  0
  6  7  1  0
  6 20  1  0
  7  8  2  0
  7 11  1  0
  8  9  1  0
  9 10  1  0
 10 21  1  0
 10 22  1  0
 10 23  1  0
 11 12  1  0
 12 24  1  0
 12 25  1  0
 12 26  1  0
 13 14  1  0
 13 27  1  0
 13 28  1  0
 14 15  1  0
 14 29  1  0
 14 30  1  0
 15 31  1  0
 15 32  1  0
M  END
$$$$

     RDKit          2D

 33 35  0  0  0  0  0  0  0  0999 V2000
    0.1503   -2.5497    0.0000 C   0  0  0  0  0  0  0  0  0  0  0  0
   -0.3000   -1.1189    0.0000 C   0  0  0  0  0  0  0  0  0  0  0  0
    0.7140   -0.0135    0.0000 C   0  0  0  0  0  0  0  0  0  0  0  0
    2.1783   -0.3390    0.0000 C   0  0  0  0  0  0  0  0  0  0  0  0
    2.6285   -1.7698    0.0000 C   0  0  0  0  0  0  0  0  0  0  0  0
    1.6145   -2.8752    0.0000 C   0  0  0  0  0  0  0  0  0  0  0  0
    2.0648   -4.3060    0.0000 C   0  0  0  0  0  0  0  0  0  0  0  0
    2.5151   -5.7368    0.0000 N   0  0  0  0  0  0  0  0  0  0  0  0
    0.2637    1.4173    0.0000 C   0  0  0  0  0  0  0  0  0  0  0  0
   -1.1671    0.9670    0.0000 C   0  0  0  0  0  0  0  0  0  0  0  0
   -2.2725    1.9810    0.0000 C   0  0  0  0  0  0  0  0  0  0  0  0
   -3.7033    1.5307    0.0000 C   0  0  0  0  0  0  0  0  0  0  0  0
   -4.0287    0.0665    0.0000 C   0  0  0  0  0  0  0  0  0  0  0  0
   -2.9234   -0.9475    0.0000 C   0  0  0  0  0  0  0  0  0  0  0  0
   -1.4926   -0.4972    0.0000 C   0  0  0  0  0  0  0  0  0  0  0  0
   -5.4596   -0.3838    0.0000 C   0  0  0  0  0  0  0  0  0  0  0  0
   -6.8904   -0.8341    0.0000 N   0  0  0  0  0  0  0  0  0  0  0  0
    1.6945    1.8676    0.0000 N   0  0  0  0  0  0  0  0  0  0  0  0
    2.1713    3.2898    0.0000 C   0  0  0  0  0  0  0  0  0  0  0  0
    3.6712    3.2759    0.0000 N   0  0  0  0  0  0  0  0  0  0  0  0
    4.1215    1.8451    0.0000 C   0  0  0  0  0  0  0  0  0  0  0  0
    2.8998    0.9747    0.0000 N   0  0  0  0  0  0  0  0  0  0  0  0
   -0.8637   -3.6551    0.0000 H   0  0  0  0  0  0  0  0  0  0  0  0
   -1.0969   -1.1394    0.0000 H   0  0  0  0  0  0  0  0  0  0  0  0
    3.4296    0.4882    0.0000 H   0  0  0  0  0  0  0  0  0  0  0  0
    4.0928   -2.0953    0.0000 H   0  0  0  0  0  0  0  0  0  0  0  0
   -0.1866    2.8481    0.0000 H   0  0  0  0  0  0  0  0  0  0  0  0
   -1.9470    3.4453    0.0000 H   0  0  0  0  0  0  0  0  0  0  0  0
   -4.8086    2.5447    0.0000 H   0  0  0  0  0  0  0  0  0  0  0  0
   -3.2488   -2.4118    0.0000 H   0  0  0  0  0  0  0  0  0  0  0  0
   -0.6654   -1.7486    0.0000 H   0  0  0  0  0  0  0  0  0  0  0  0
    1.3009    4.5114    0.0000 H   0  0  0  0  0  0  0  0  0  0  0  0
    5.5437    1.3683    0.0000 H   0  0  0  0  0  0  0  0  0  0  0  0
  1  2  2  0
  1  6  1  0
  1 23  1  0
  2  3  1  0
  2 24  1  0
  3  4  2  0
  3  9  1  0
  4  5  1  0
  4 25  1  0
  5  6  2  0
  5 26  1  0
  6  7  1  0
  7  8  3  0
  9 10  1  0
  9 18  1  0
  9 27  1  0
 10 11  2  0
 10 15  1  0
 11 12  1  0
 11 28  1  0
 12 13  2  0
 12 29  1  0
 13 14  1  0
 13 16  1  0
 14 15  2  0
 14 30  1  0
 15 31  1  0
 16 17  3  0
 18 19  1  0
 18 22  1  0
 19 20  2  0
 19 32  1  0
 20 21  1  0
 21 22  2  0
 21 33  1  0
M  END
$$$$

     RDKit          2D

 27 28  0  0  0  0  0  0  0  0999 V2000
    3.8971   -1.0717    0.0000 C   0  0  0  0  0  0  0  0  0  0  0  0
    2.5981   -1.8217    0.0000 C   0  0  0  0  0  0  0  0  0  0  0  0
    1.2990   -1.0717    0.0000 C   0  0  0  0  0  0  0  0  0  0  0  0
    1.2990    0.4283    0.0000 C   0  0  0  0  0  0  0  0  0  0  0  0
    2.5981    1.1783    0.0000 C   0  0  0  0  0  0  0  0  0  0  0  0
    3.8971    0.4283    0.0000 C   0  0  0  0  0  0  0  0  0  0  0  0
    5.1962    1.1783    0.0000 N   0  0  0  0  0  0  0  0  0  0  0  0
    0.0000   -1.8217    0.0000 O   0  0  0  0  0  0  0  0  0  0  0  0
   -1.2990   -1.0717    0.0000 C   0  0  0  0  0  0  0  0  0  0  0  0
   -1.2990    0.4283    0.0000 C   0  0  0  0  0  0  0  0  0  0  0  0
   -2.5981    1.1783    0.0000 C   0  0  0  0  0  0  0  0  0  0  0  0
   -3.8971    0.4283    0.0000 C   0  0  0  0  0  0  0  0  0  0  0  0
   -3.8971   -1.0717    0.0000 C   0  0  0  0  0  0  0  0  0  0  0  0
   -2.5981   -1.8217    0.0000 C   0  0  0  0  0  0  0  0  0  0  0  0
   -5.1962    1.1783    0.0000 N   0  0  0  0  0  0  0  0  0  0  0  0
    5.1962   -1.8217    0.0000 H   0  0  0  0  0  0  0  0  0  0  0  0
    2.5981   -3.3217    0.0000 H   0  0  0  0  0  0  0  0  0  0  0  0
    0.5131    1.0206    0.0000 H   0  0  0  0  0  0  0  0  0  0  0  0
    2.5981    2.6783    0.0000 H   0  0  0  0  0  0  0  0  0  0  0  0
    6.4952    0.4283    0.0000 H   0  0  0  0  0  0  0  0  0  0  0  0
    5.1962    2.6783    0.0000 H   0  0  0  0  0  0  0  0  0  0  0  0
   -0.5131    1.0206    0.0000 H   0  0  0  0  0  0  0  0  0  0  0  0
   -2.5981    2.6783    0.0000 H   0  0  0  0  0  0  0  0  0  0  0  0
   -5.1962   -1.8217    0.0000 H   0  0  0  0  0  0  0  0  0  0  0  0
   -2.5981   -3.3217    0.0000 H   0  0  0  0  0  0  0  0  0  0  0  0
   -6.4952    0.4283    0.0000 H   0  0  0  0  0  0  0  0  0  0  0  0
   -5.1962    2.6783    0.0000 H   0  0  0  0  0  0  0  0  0  0  0  0
  1  2  2  0
  1  6  1  0
  1 16  1  0
  2  3  1  0
  2 17  1  0
  3  4  2  0
  3  8  1  0
  4  5  1  0
  4 18  1  0
  5  6  2  0
  5 19  1  0
  6  7  1  0
  7 20  1  0
  7 21  1  0
  8  9  1  0
  9 10  2  0
  9 14  1  0
 10 11  1  0
 10 22  1  0
 11 12  2  0
 11 23  1  0
 12 13  1  0
 12 15  1  0
 13 14  2  0
 13 24  1  0
 14 25  1  0
 15 26  1  0
 15 27  1  0
M  END
$$$$

     RDKit          2D

 47 48  0  0  0  0  0  0  0  0999 V2000
   -9.9078    1.2950    0.0000 C   0  0  0  0  0  0  0  0  0  0  0  0
   -8.5448    0.6687    0.0000 C   0  0  0  0  0  0  0  0  0  0  0  0
   -7.1818    0.0424    0.0000 C   0  0  0  0  0  0  0  0  0  0  0  0
   -5.8188   -0.5839    0.0000 C   0  0  0  0  0  0  0  0  0  0  0  0
   -4.4558   -1.2102    0.0000 O   0  0  0  0  0  0  0  0  0  0  0  0
   -3.2319   -0.3430    0.0000 C   0  0  0  0  0  0  0  0  0  0  0  0
   -3.3710    1.1505    0.0000 O   0  0  0  0  0  0  0  0  0  0  0  0
   -1.8690   -0.9693    0.0000 C   0  0  0  0  0  0  0  0  0  0  0  0
   -2.4953   -2.3323    0.0000 C   0  0  0  0  0  0  0  0  0  0  0  0
   -0.5060   -1.5956    0.0000 O   0  0  0  0  0  0  0  0  0  0  0  0
    0.7179   -0.7284    0.0000 C   0  0  0  0  0  0  0  0  0  0  0  0
    0.5788    0.7651    0.0000 C   0  0  0  0  0  0  0  0  0  0  0  0
    1.8027    1.6323    0.0000 C   0  0  0  0  0  0  0  0  0  0  0  0
    3.1657    1.0060    0.0000 C   0  0  0  0  0  0  0  0  0  0  0  0
    3.3048   -0.4875    0.0000 C   0  0  0  0  0  0  0  0  0  0  0  0
    2.0809   -1.3547    0.0000 C   0  0  0  0  0  0  0  0  0  0  0  0
    4.3896    1.8733    0.0000 O   0  0  0  0  0  0  0  0  0  0  0  0
    5.7526    1.2469    0.0000 C   0  0  0  0  0  0  0  0  0  0  0  0
    5.8917   -0.2466    0.0000 N   0  0  0  0  0  0  0  0  0  0  0  0
    7.2547   -0.8729    0.0000 C   0  0  0  0  0  0  0  0  0  0  0  0
    8.4786   -0.0057    0.0000 C   0  0  0  0  0  0  0  0  0  0  0  0
    8.3395    1.4879    0.0000 C   0  0  0  0  0  0  0  0  0  0  0  0
    6.9765    2.1142    0.0000 C   0  0  0  0  0  0  0  0  0  0  0  0
    9.8416   -0.6320    0.0000 C   0  0  0  0  0  0  0  0  0  0  0  0
   11.2046   -1.2583    0.0000 F   0  0  0  0  0  0  0  0  0  0  0  0
   10.4679    0.7310    0.0000 F   0  0  0  0  0  0  0  0  0  0  0  0
    9.2153   -1.9950    0.0000 F   0  0  0  0  0  0  0  0  0  0  0  0
   -9.2815    2.6580    0.0000 H   0  0  0  0  0  0  0  0  0  0  0  0
  -10.5341   -0.0680    0.0000 H   0  0  0  0  0  0  0  0  0  0  0  0
  -11.2708    1.9213    0.0000 H   0  0  0  0  0  0  0  0  0  0  0  0
   -9.1711   -0.6943    0.0000 H   0  0  0  0  0  0  0  0  0  0  0  0
   -7.9185    2.0317    0.0000 H   0  0  0  0  0  0  0  0  0  0  0  0
   -6.5555    1.4054    0.0000 H   0  0  0  0  0  0  0  0  0  0  0  0
   -7.8081   -1.3206    0.0000 H   0  0  0  0  0  0  0  0  0  0  0  0
   -6.4451   -1.9469    0.0000 H   0  0  0  0  0  0  0  0  0  0  0  0
   -5.1925    0.7791    0.0000 H   0  0  0  0  0  0  0  0  0  0  0  0
   -1.2426    0.3937    0.0000 H   0  0  0  0  0  0  0  0  0  0  0  0
   -1.1323   -2.9586    0.0000 H   0  0  0  0  0  0  0  0  0  0  0  0
   -3.9693   -2.0544    0.0000 H   0  0  0  0  0  0  0  0  0  0  0  0
   -3.1216   -3.6953    0.0000 H   0  0  0  0  0  0  0  0  0  0  0  0
   -0.7841    1.3914    0.0000 H   0  0  0  0  0  0  0  0  0  0  0  0
    1.6636    3.1259    0.0000 H   0  0  0  0  0  0  0  0  0  0  0  0
    4.6678   -1.1138    0.0000 H   0  0  0  0  0  0  0  0  0  0  0  0
    2.2200   -2.8483    0.0000 H   0  0  0  0  0  0  0  0  0  0  0  0
    7.3938   -2.3664    0.0000 H   0  0  0  0  0  0  0  0  0  0  0  0
    9.5634    2.3551    0.0000 H   0  0  0  0  0  0  0  0  0  0  0  0
    6.8374    3.6077    0.0000 H   0  0  0  0  0  0  0  0  0  0  0  0
  1  2  1  0
  1 28  1  0
  1 29  1  0
  1 30  1  0
  2  3  1  0
  2 31  1  0
  2 32  1  0
  3  4  1  0
  3 33  1  0
  3 34  1  0
  4  5  1  0
  4 35  1  0
  4 36  1  0
  5  6  1  0
  6  7  2  0
  6  8  1  0
  8  9  1  0
  8 10  1  0
  8 37  1  1
  9 38  1  0
  9 39  1  0
  9 40  1  0
 10 11  1  0
 11 12  2  0
 11 16  1  0
 12 13  1  0
 12 41  1  0
 13 14  2  0
 13 42  1  0
 14 15  1  0
 14 17  1  0
 15 16  2  0
 15 43  1  0
 16 44  1  0
 17 18  1  0
 18 19  2  0
 18 23  1  0
 19 20  1  0
 20 21  2  0
 20 45  1  0
 21 22  1  0
 21 24  1  0
 22 23  2  0
 22 46  1  0
 23 47  1  0
 24 25  1  0
 24 26  1  0
 24 27  1  0
M  END
$$$$

     RDKit          2D

 46 46  0  0  0  0  0  0  0  0999 V2000
   -3.5862   -1.2951    0.0000 C   0  0  0  0  0  0  0  0  0  0  0  0
   -2.7955   -2.5698    0.0000 C   0  0  0  0  0  0  0  0  0  0  0  0
   -1.5977   -3.4727    0.0000 C   0  0  0  0  0  0  0  0  0  0  0  0
   -0.1547   -3.8821    0.0000 C   0  0  0  0  0  0  0  0  0  0  0  0
    1.3388   -3.7424    0.0000 C   0  0  0  0  0  0  0  0  0  0  0  0
    2.6810   -3.0727    0.0000 C   0  0  0  0  0  0  0  0  0  0  0  0
    3.6907   -1.9634    0.0000 O   0  0  0  0  0  0  0  0  0  0  0  0
    4.2314   -0.5642    0.0000 C   0  0  0  0  0  0  0  0  0  0  0  0
    4.2302    0.9358    0.0000 C   0  0  0  0  0  0  0  0  0  0  0  0
    3.6872    2.3340    0.0000 C   0  0  0  0  0  0  0  0  0  0  0  0
    2.6757    3.4417    0.0000 C   0  0  0  0  0  0  0  0  0  0  0  0
    1.3324    4.1092    0.0000 O   0  0  0  0  0  0  0  0  0  0  0  0
   -0.1613    4.2464    0.0000 C   0  0  0  0  0  0  0  0  0  0  0  0
   -0.3009    5.7399    0.0000 O   0  0  0  0  0  0  0  0  0  0  0  0
   -1.6037    3.8347    0.0000 C   0  0  0  0  0  0  0  0  0  0  0  0
   -2.8000    2.9298    0.0000 C   0  0  0  0  0  0  0  0  0  0  0  0
   -3.5886    1.6538    0.0000 C   0  0  0  0  0  0  0  0  0  0  0  0
   -3.8630    0.1791    0.0000 C   0  0  0  0  0  0  0  0  0  0  0  0
   -4.2479   -2.0236    0.0000 H   0  0  0  0  0  0  0  0  0  0  0  0
   -5.0798   -1.1564    0.0000 H   0  0  0  0  0  0  0  0  0  0  0  0
   -3.0821   -3.3136    0.0000 H   0  0  0  0  0  0  0  0  0  0  0  0
   -3.5623   -2.7878    0.0000 H   0  0  0  0  0  0  0  0  0  0  0  0
   -1.5950   -4.9727    0.0000 H   0  0  0  0  0  0  0  0  0  0  0  0
   -2.3832   -4.0657    0.0000 H   0  0  0  0  0  0  0  0  0  0  0  0
    0.3898   -5.2798    0.0000 H   0  0  0  0  0  0  0  0  0  0  0  0
   -0.9445   -5.1572    0.0000 H   0  0  0  0  0  0  0  0  0  0  0  0
    2.3514   -4.8491    0.0000 H   0  0  0  0  0  0  0  0  0  0  0  0
    1.0629   -5.2168    0.0000 H   0  0  0  0  0  0  0  0  0  0  0  0
    4.0962   -3.5701    0.0000 H   0  0  0  0  0  0  0  0  0  0  0  0
    2.9564   -4.5472    0.0000 H   0  0  0  0  0  0  0  0  0  0  0  0
    5.6734   -0.1511    0.0000 H   0  0  0  0  0  0  0  0  0  0  0  0
    5.3091   -1.6075    0.0000 H   0  0  0  0  0  0  0  0  0  0  0  0
    5.4255    1.8419    0.0000 H   0  0  0  0  0  0  0  0  0  0  0  0
    5.6728    0.5250    0.0000 H   0  0  0  0  0  0  0  0  0  0  0  0
    4.4745    3.6108    0.0000 H   0  0  0  0  0  0  0  0  0  0  0  0
    5.1808    2.4722    0.0000 H   0  0  0  0  0  0  0  0  0  0  0  0
    2.7668    4.9390    0.0000 H   0  0  0  0  0  0  0  0  0  0  0  0
    4.0186    4.1101    0.0000 H   0  0  0  0  0  0  0  0  0  0  0  0
   -2.8024    4.7365    0.0000 H   0  0  0  0  0  0  0  0  0  0  0  0
   -1.4206    5.3235    0.0000 H   0  0  0  0  0  0  0  0  0  0  0  0
   -4.2435    3.3377    0.0000 H   0  0  0  0  0  0  0  0  0  0  0  0
   -3.3416    4.3286    0.0000 H   0  0  0  0  0  0  0  0  0  0  0  0
   -5.0819    1.5127    0.0000 H   0  0  0  0  0  0  0  0  0  0  0  0
   -4.5989    2.7625    0.0000 H   0  0  0  0  0  0  0  0  0  0  0  0
   -5.2045   -0.4919    0.0000 H   0  0  0  0  0  0  0  0  0  0  0  0
   -5.2056    0.8480    0.0000 H   0  0  0  0  0  0  0  0  0  0  0  0
  1  2  1  0
  1 18  1  0
  1 19  1  0
  1 20  1  0
  2  3  1  0
  2 21  1  0
  2 22  1  0
  3  4  1  0
  3 23  1  0
  3 24  1  0
  4  5  1  0
  4 25  1  0
  4 26  1  0
  5  6  1  0
  5 27  1  0
  5 28  1  0
  6  7  1  0
  6 29  1  0
  6 30  1  0
  7  8  1  0
  8  9  1  0
  8 31  1  0
  8 32  1  0
  9 10  1  0
  9 33  1  0
  9 34  1  0
 10 11  1  0
 10 35  1  0
 10 36  1  0
 11 12  1  0
 11 37  1  0
 11 38  1  0
 12 13  1  0
 13 14  2  0
 13 15  1  0
 15 16  1  0
 15 39  1  0
 15 40  1  0
 16 17  1  0
 16 41  1  0
 16 42  1  0
 17 18  1  0
 17 43  1  0
 17 44  1  0
 18 45  1  0
 18 46  1  0
M  END
$$$$

     RDKit          2D

 33 34  0  0  0  0  0  0  0  0999 V2000
    0.1793   -2.8062    0.0000 C   0  0  0  0  0  0  0  0  0  0  0  0
    0.5984   -1.3660    0.0000 C   0  0  0  0  0  0  0  0  0  0  0  0
    1.0176    0.0743    0.0000 C   0  0  0  0  0  0  0  0  0  0  0  0
    2.3632   -0.5886    0.0000 C   0  0  0  0  0  0  0  0  0  0  0  0
    3.6101    0.2452    0.0000 C   0  0  0  0  0  0  0  0  0  0  0  0
    3.5114    1.7420    0.0000 C   0  0  0  0  0  0  0  0  0  0  0  0
    4.7583    2.5758    0.0000 O   0  0  0  0  0  0  0  0  0  0  0  0
    2.1658    2.4049    0.0000 N   0  0  0  0  0  0  0  0  0  0  0  0
    0.9189    1.5710    0.0000 C   0  0  0  0  0  0  0  0  0  0  0  0
   -0.3358    2.3930    0.0000 O   0  0  0  0  0  0  0  0  0  0  0  0
   -0.4735    0.2370    0.0000 C   0  0  0  0  0  0  0  0  0  0  0  0
   -1.0782    1.6097    0.0000 C   0  0  0  0  0  0  0  0  0  0  0  0
   -2.5693    1.7725    0.0000 C   0  0  0  0  0  0  0  0  0  0  0  0
   -3.4558    0.5624    0.0000 C   0  0  0  0  0  0  0  0  0  0  0  0
   -2.8512   -0.8103    0.0000 C   0  0  0  0  0  0  0  0  0  0  0  0
   -1.3600   -0.9730    0.0000 C   0  0  0  0  0  0  0  0  0  0  0  0
   -4.9470    0.7252    0.0000 N   0  0  0  0  0  0  0  0  0  0  0  0
   -1.3013   -2.5657    0.0000 H   0  0  0  0  0  0  0  0  0  0  0  0
    1.6195   -3.2254    0.0000 H   0  0  0  0  0  0  0  0  0  0  0  0
   -0.2399   -4.2464    0.0000 H   0  0  0  0  0  0  0  0  0  0  0  0
    1.3310   -1.6804    0.0000 H   0  0  0  0  0  0  0  0  0  0  0  0
   -0.6156   -1.3188    0.0000 H   0  0  0  0  0  0  0  0  0  0  0  0
    3.4009   -1.6718    0.0000 H   0  0  0  0  0  0  0  0  0  0  0  0
    1.9740   -1.2843    0.0000 H   0  0  0  0  0  0  0  0  0  0  0  0
    5.0670    0.6023    0.0000 H   0  0  0  0  0  0  0  0  0  0  0  0
    4.2147   -1.1275    0.0000 H   0  0  0  0  0  0  0  0  0  0  0  0
    2.0671    3.9016    0.0000 H   0  0  0  0  0  0  0  0  0  0  0  0
   -0.3458    2.9188    0.0000 H   0  0  0  0  0  0  0  0  0  0  0  0
   -3.1740    3.1452    0.0000 H   0  0  0  0  0  0  0  0  0  0  0  0
   -3.7377   -2.0203    0.0000 H   0  0  0  0  0  0  0  0  0  0  0  0
   -0.9272   -2.4092    0.0000 H   0  0  0  0  0  0  0  0  0  0  0  0
   -5.8335   -0.4848    0.0000 H   0  0  0  0  0  0  0  0  0  0  0  0
   -5.5516    2.0979    0.0000 H   0  0  0  0  0  0  0  0  0  0  0  0
  1  2  1  0
  1 18  1  0
  1 19  1  0
  1 20  1  0
  3  2  1  1
  2 21  1  0
  2 22  1  0
  3  4  1  0
  3  9  1  0
  3 11  1  0
  4  5  1  0
  4 23  1  0
  4 24  1  0
  5  6  1  0
  5 25  1  0
  5 26  1  0
  6  7  2  0
  6  8  1  0
  8  9  1  0
  8 27  1  0
  9 10  2  0
 11 12  2  0
 11 16  1  0
 12 13  1  0
 12 28  1  0
 13 14  2  0
 13 29  1  0
 14 15  1  0
 14 17  1  0
 15 16  2  0
 15 30  1  0
 16 31  1  0
 17 32  1  0
 17 33  1  0
M  END
$$$$

     RDKit          2D

 37 38  0  0  0  0  0  0  0  0999 V2000
   -5.5782    0.4025    0.0000 C   0  0  0  0  0  0  0  0  0  0  0  0
   -4.0825    0.5161    0.0000 C   0  0  0  0  0  0  0  0  0  0  0  0
   -2.5868    0.6298    0.0000 C   0  0  0  0  0  0  0  0  0  0  0  0
   -1.0911    0.7435    0.0000 C   0  0  0  0  0  0  0  0  0  0  0  0
    0.4046    0.8572    0.0000 C   0  0  0  0  0  0  0  0  0  0  0  0
    0.5182   -0.6385    0.0000 C   0  0  0  0  0  0  0  0  0  0  0  0
    0.6319   -2.1342    0.0000 N   0  0  0  0  0  0  0  0  0  0  0  0
   -0.5113   -3.1053    0.0000 C   0  0  0  0  0  0  0  0  0  0  0  0
    0.0590   -4.4927    0.0000 N   0  0  0  0  0  0  0  0  0  0  0  0
    1.5547   -4.3790    0.0000 C   0  0  0  0  0  0  0  0  0  0  0  0
    1.9087   -2.9214    0.0000 N   0  0  0  0  0  0  0  0  0  0  0  0
    0.2909    2.3528    0.0000 C   0  0  0  0  0  0  0  0  0  0  0  0
    0.1772    3.8485    0.0000 N   0  0  0  0  0  0  0  0  0  0  0  0
    1.9002    0.9708    0.0000 C   0  0  0  0  0  0  0  0  0  0  0  0
    2.7465   -0.2676    0.0000 C   0  0  0  0  0  0  0  0  0  0  0  0
    4.2422   -0.1540    0.0000 C   0  0  0  0  0  0  0  0  0  0  0  0
    4.8916    1.1982    0.0000 C   0  0  0  0  0  0  0  0  0  0  0  0
    4.0453    2.4366    0.0000 C   0  0  0  0  0  0  0  0  0  0  0  0
    2.5496    2.3230    0.0000 C   0  0  0  0  0  0  0  0  0  0  0  0
    6.3873    1.3118    0.0000 Cl  0  0  0  0  0  0  0  0  0  0  0  0
   -5.6919    1.8982    0.0000 H   0  0  0  0  0  0  0  0  0  0  0  0
   -5.4645   -1.0932    0.0000 H   0  0  0  0  0  0  0  0  0  0  0  0
   -7.0739    0.2888    0.0000 H   0  0  0  0  0  0  0  0  0  0  0  0
   -3.9688   -0.9795    0.0000 H   0  0  0  0  0  0  0  0  0  0  0  0
   -4.1962    2.0118    0.0000 H   0  0  0  0  0  0  0  0  0  0  0  0
   -2.7005    2.1255    0.0000 H   0  0  0  0  0  0  0  0  0  0  0  0
   -2.4731   -0.8659    0.0000 H   0  0  0  0  0  0  0  0  0  0  0  0
   -1.1322   -0.1413    0.0000 H   0  0  0  0  0  0  0  0  0  0  0  0
   -1.2048    2.2392    0.0000 H   0  0  0  0  0  0  0  0  0  0  0  0
   -0.3502   -0.8128    0.0000 H   0  0  0  0  0  0  0  0  0  0  0  0
    1.3914   -0.7871    0.0000 H   0  0  0  0  0  0  0  0  0  0  0  0
   -1.9689   -2.7512    0.0000 H   0  0  0  0  0  0  0  0  0  0  0  0
    2.5258   -5.5222    0.0000 H   0  0  0  0  0  0  0  0  0  0  0  0
    2.3631   -1.0661    0.0000 H   0  0  0  0  0  0  0  0  0  0  0  0
    5.0885   -1.3924    0.0000 H   0  0  0  0  0  0  0  0  0  0  0  0
    4.6947    3.7888    0.0000 H   0  0  0  0  0  0  0  0  0  0  0  0
    1.7034    3.5614    0.0000 H   0  0  0  0  0  0  0  0  0  0  0  0
  1  2  1  0
  1 21  1  0
  1 22  1  0
  1 23  1  0
  2  3  1  0
  2 24  1  0
  2 25  1  0
  3  4  1  0
  3 26  1  0
  3 27  1  0
  4  5  1  0
  4 28  1  0
  4 29  1  0
  5  6  1  0
  5 12  1  6
  5 14  1  0
  6  7  1  0
  6 30  1  0
  6 31  1  0
  7  8  1  0
  7 11  1  0
  8  9  2  0
  8 32  1  0
  9 10  1  0
 10 11  2  0
 10 33  1  0
 12 13  3  0
 14 15  2  0
 14 19  1  0
 15 16  1  0
 15 34  1  0
 16 17  2  0
 16 35  1  0
 17 18  1  0
 17 20  1  0
 18 19  2  0
 18 36  1  0
 19 37  1  0
M  END
$$$$

     RDKit          2D

 35 37  0  0  0  0  0  0  0  0999 V2000
   -3.7580   -0.3635    0.0000 C   0  0  0  0  0  0  0  0  0  0  0  0
   -4.4988    0.9408    0.0000 C   0  0  0  0  0  0  0  0  0  0  0  0
   -3.7397    2.2345    0.0000 C   0  0  0  0  0  0  0  0  0  0  0  0
   -2.2398    2.2240    0.0000 C   0  0  0  0  0  0  0  0  0  0  0  0
   -1.4989    0.9197    0.0000 C   0  0  0  0  0  0  0  0  0  0  0  0
   -2.2580   -0.3740    0.0000 C   0  0  0  0  0  0  0  0  0  0  0  0
    0.0010    0.9091    0.0000 C   0  0  0  0  0  0  0  0  0  0  0  0
   -0.0095   -0.5908    0.0000 C   0  0  0  0  0  0  0  0  0  0  0  0
   -0.0201   -2.0908    0.0000 N   0  0  0  0  0  0  0  0  0  0  0  0
   -1.2398   -2.9639    0.0000 C   0  0  0  0  0  0  0  0  0  0  0  0
   -0.7863   -4.3937    0.0000 N   0  0  0  0  0  0  0  0  0  0  0  0
    0.7137   -4.4043    0.0000 C   0  0  0  0  0  0  0  0  0  0  0  0
    1.1872   -2.9810    0.0000 N   0  0  0  0  0  0  0  0  0  0  0  0
    1.5010    0.8986    0.0000 C   0  0  0  0  0  0  0  0  0  0  0  0
    2.2601    2.1923    0.0000 C   0  0  0  0  0  0  0  0  0  0  0  0
    3.7601    2.1817    0.0000 C   0  0  0  0  0  0  0  0  0  0  0  0
    4.5009    0.8775    0.0000 C   0  0  0  0  0  0  0  0  0  0  0  0
    3.7418   -0.4163    0.0000 C   0  0  0  0  0  0  0  0  0  0  0  0
    2.2418   -0.4057    0.0000 C   0  0  0  0  0  0  0  0  0  0  0  0
    6.0009    0.8669    0.0000 F   0  0  0  0  0  0  0  0  0  0  0  0
    0.0116    2.4091    0.0000 O   0  0  0  0  0  0  0  0  0  0  0  0
   -1.4806    3.5177    0.0000 F   0  0  0  0  0  0  0  0  0  0  0  0
   -4.5171   -1.6572    0.0000 H   0  0  0  0  0  0  0  0  0  0  0  0
   -5.9988    0.9514    0.0000 H   0  0  0  0  0  0  0  0  0  0  0  0
   -4.4806    3.5388    0.0000 H   0  0  0  0  0  0  0  0  0  0  0  0
   -1.8206   -1.1442    0.0000 H   0  0  0  0  0  0  0  0  0  0  0  0
    0.8484   -0.8112    0.0000 H   0  0  0  0  0  0  0  0  0  0  0  0
   -0.8704   -0.7991    0.0000 H   0  0  0  0  0  0  0  0  0  0  0  0
   -2.6631   -2.4904    0.0000 H   0  0  0  0  0  0  0  0  0  0  0  0
    1.5868   -5.6240    0.0000 H   0  0  0  0  0  0  0  0  0  0  0  0
    1.8400    3.2019    0.0000 H   0  0  0  0  0  0  0  0  0  0  0  0
    4.5192    3.4755    0.0000 H   0  0  0  0  0  0  0  0  0  0  0  0
    4.4826   -1.7206    0.0000 H   0  0  0  0  0  0  0  0  0  0  0  0
    1.7936   -1.1697    0.0000 H   0  0  0  0  0  0  0  0  0  0  0  0
    0.8895    3.0610    0.0000 H   0  0  0  0  0  0  0  0  0  0  0  0
  1  2  2  0
  1  6  1  0
  1 23  1  0
  2  3  1  0
  2 24  1  0
  3  4  2  0
  3 25  1  0
  4  5  1  0
  4 22  1  0
  5  6  2  0
  5  7  1  0
  6 26  1  0
  7  8  1  0
  7 14  1  0
  7 21  1  1
  8  9  1  0
  8 27  1  0
  8 28  1  0
  9 10  1  0
  9 13  1  0
 10 11  2  0
 10 29  1  0
 11 12  1  0
 12 13  2  0
 12 30  1  0
 14 15  2  0
 14 19  1  0
 15 16  1  0
 15 31  1  0
 16 17  2  0
 16 32  1  0
 17 18  1  0
 17 20  1  0
 18 19  2  0
 18 33  1  0
 19 34  1  0
 21 35  1  0
M  END
$$$$

     RDKit          2D

 45 46  0  0  0  0  0  0  0  0999 V2000
   -6.0431    1.4963    0.0000 C   0  0  0  0  0  0  0  0  0  0  0  0
   -5.5427    0.0823    0.0000 C   0  0  0  0  0  0  0  0  0  0  0  0
   -4.0679   -0.1914    0.0000 C   0  0  0  0  0  0  0  0  0  0  0  0
   -2.5931   -0.4651    0.0000 N   0  0  0  0  0  0  0  0  0  0  0  0
   -2.1998   -1.9126    0.0000 C   0  0  0  0  0  0  0  0  0  0  0  0
   -0.8228   -2.5077    0.0000 C   0  0  0  0  0  0  0  0  0  0  0  0
    0.5009   -1.8021    0.0000 C   0  0  0  0  0  0  0  0  0  0  0  0
    1.6413   -2.7765    0.0000 C   0  0  0  0  0  0  0  0  0  0  0  0
    3.0553   -2.2762    0.0000 C   0  0  0  0  0  0  0  0  0  0  0  0
    3.3290   -0.8013    0.0000 C   0  0  0  0  0  0  0  0  0  0  0  0
    2.1887    0.1731    0.0000 C   0  0  0  0  0  0  0  0  0  0  0  0
    0.7746   -0.3273    0.0000 C   0  0  0  0  0  0  0  0  0  0  0  0
   -0.2078    0.8062    0.0000 C   0  0  0  0  0  0  0  0  0  0  0  0
   -1.7066    0.7449    0.0000 C   0  0  0  0  0  0  0  0  0  0  0  0
    1.1159    1.5118    0.0000 C   0  0  0  0  0  0  0  0  0  0  0  0
    2.3887    0.7182    0.0000 C   0  0  0  0  0  0  0  0  0  0  0  0
    3.7124    1.4237    0.0000 C   0  0  0  0  0  0  0  0  0  0  0  0
    3.7633    2.9229    0.0000 C   0  0  0  0  0  0  0  0  0  0  0  0
    2.4904    3.7165    0.0000 C   0  0  0  0  0  0  0  0  0  0  0  0
    1.1667    3.0109    0.0000 C   0  0  0  0  0  0  0  0  0  0  0  0
    4.7431   -0.3010    0.0000 O   0  0  0  0  0  0  0  0  0  0  0  0
    4.1957   -3.2506    0.0000 O   0  0  0  0  0  0  0  0  0  0  0  0
    1.3676   -4.2514    0.0000 Cl  0  0  0  0  0  0  0  0  0  0  0  0
   -0.7500    6.2156    0.0000 Br  0  0  0  0  0  0  0  0  0  0  0  0
   -7.5179    1.7700    0.0000 H   0  0  0  0  0  0  0  0  0  0  0  0
   -5.0687    2.6367    0.0000 H   0  0  0  0  0  0  0  0  0  0  0  0
   -6.5171   -1.0581    0.0000 H   0  0  0  0  0  0  0  0  0  0  0  0
   -3.9760    1.3057    0.0000 H   0  0  0  0  0  0  0  0  0  0  0  0
   -4.5193   -1.6219    0.0000 H   0  0  0  0  0  0  0  0  0  0  0  0
   -2.6512   -3.3431    0.0000 H   0  0  0  0  0  0  0  0  0  0  0  0
   -3.6799   -2.1562    0.0000 H   0  0  0  0  0  0  0  0  0  0  0  0
    0.1596   -3.6412    0.0000 H   0  0  0  0  0  0  0  0  0  0  0  0
   -1.5552   -3.8167    0.0000 H   0  0  0  0  0  0  0  0  0  0  0  0
    2.4623    1.6479    0.0000 H   0  0  0  0  0  0  0  0  0  0  0  0
   -0.4218    2.2909    0.0000 H   0  0  0  0  0  0  0  0  0  0  0  0
   -3.0007    1.5033    0.0000 H   0  0  0  0  0  0  0  0  0  0  0  0
   -1.6147    2.2421    0.0000 H   0  0  0  0  0  0  0  0  0  0  0  0
    2.3379   -0.7809    0.0000 H   0  0  0  0  0  0  0  0  0  0  0  0
    4.9853    0.6302    0.0000 H   0  0  0  0  0  0  0  0  0  0  0  0
    5.0870    3.6284    0.0000 H   0  0  0  0  0  0  0  0  0  0  0  0
    2.5412    5.2156    0.0000 H   0  0  0  0  0  0  0  0  0  0  0  0
   -0.1062    3.8045    0.0000 H   0  0  0  0  0  0  0  0  0  0  0  0
    5.8835   -1.2754    0.0000 H   0  0  0  0  0  0  0  0  0  0  0  0
    3.9220   -4.7254    0.0000 H   0  0  0  0  0  0  0  0  0  0  0  0
    0.7500    6.2156    0.0000 H   0  0  0  0  0  0  0  0  0  0  0  0
  1  2  2  0
  1 25  1  0
  1 26  1  0
  2  3  1  0
  2 27  1  0
  3  4  1  0
  3 28  1  0
  3 29  1  0
  4  5  1  0
  4 14  1  0
  5  6  1  0
  5 30  1  0
  5 31  1  0
  6  7  1  0
  6 32  1  0
  6 33  1  0
  7  8  2  0
  7 12  1  0
  8  9  1  0
  8 23  1  0
  9 10  2  0
  9 22  1  0
 10 11  1  0
 10 21  1  0
 11 12  2  0
 11 34  1  0
 12 13  1  0
 13 14  1  0
 13 15  1  0
 13 35  1  1
 14 36  1  0
 14 37  1  0
 15 16  2  0
 15 20  1  0
 16 17  1  0
 16 38  1  0
 17 18  2  0
 17 39  1  0
 18 19  1  0
 18 40  1  0
 19 20  2  0
 19 41  1  0
 20 42  1  0
 21 43  1  0
 22 44  1  0
 24 45  1  0
M  END
$$$$

     RDKit          2D

 56 57  0  0  0  0  0  0  0  0999 V2000
   -5.9804    0.3958    0.0000 C   0  0  0  0  0  0  0  0  0  0  0  0
   -5.6652   -1.0707    0.0000 C   0  0  0  0  0  0  0  0  0  0  0  0
   -4.2376   -1.5310    0.0000 C   0  0  0  0  0  0  0  0  0  0  0  0
   -3.1251   -0.5248    0.0000 C   0  0  0  0  0  0  0  0  0  0  0  0
   -3.4403    0.9417    0.0000 C   0  0  0  0  0  0  0  0  0  0  0  0
   -4.8680    1.4020    0.0000 C   0  0  0  0  0  0  0  0  0  0  0  0
   -1.7356    0.0403    0.0000 N   0  0  0  0  0  0  0  0  0  0  0  0
   -0.5515   -0.8805    0.0000 C   0  0  0  0  0  0  0  0  0  0  0  0
   -0.7569   -2.3664    0.0000 S   0  0  0  0  0  0  0  0  0  0  0  0
    0.8380   -0.3155    0.0000 N   0  0  0  0  0  0  0  0  0  0  0  0
    2.0221   -1.2363    0.0000 C   0  0  0  0  0  0  0  0  0  0  0  0
    3.4116   -0.6712    0.0000 C   0  0  0  0  0  0  0  0  0  0  0  0
    3.6170    0.8146    0.0000 C   0  0  0  0  0  0  0  0  0  0  0  0
    2.4329    1.7354    0.0000 C   0  0  0  0  0  0  0  0  0  0  0  0
    1.0434    1.1704    0.0000 C   0  0  0  0  0  0  0  0  0  0  0  0
    5.0446    0.3543    0.0000 C   0  0  0  0  0  0  0  0  0  0  0  0
    6.2561    1.2388    0.0000 C   0  0  0  0  0  0  0  0  0  0  0  0
    7.4716    0.3598    0.0000 N   0  0  0  0  0  0  0  0  0  0  0  0
    7.0113   -1.0678    0.0000 C   0  0  0  0  0  0  0  0  0  0  0  0
    5.5113   -1.0712    0.0000 N   0  0  0  0  0  0  0  0  0  0  0  0
   -0.7500    6.6038    0.0000 C   0  0  0  0  0  0  0  0  0  0  0  0
    0.7500    6.6038    0.0000 C   0  0  0  0  0  0  0  0  0  0  0  0
    1.5000    5.3048    0.0000 C   0  0  0  0  0  0  0  0  0  0  0  0
    0.7500    4.0057    0.0000 O   0  0  0  0  0  0  0  0  0  0  0  0
    3.0000    5.3048    0.0000 O   0  0  0  0  0  0  0  0  0  0  0  0
   -1.5000    5.3048    0.0000 C   0  0  0  0  0  0  0  0  0  0  0  0
   -0.7500    4.0057    0.0000 O   0  0  0  0  0  0  0  0  0  0  0  0
   -3.0000    5.3048    0.0000 O   0  0  0  0  0  0  0  0  0  0  0  0
   -6.7782    1.6661    0.0000 H   0  0  0  0  0  0  0  0  0  0  0  0
   -7.3699   -0.1692    0.0000 H   0  0  0  0  0  0  0  0  0  0  0  0
   -7.1642   -1.1264    0.0000 H   0  0  0  0  0  0  0  0  0  0  0  0
   -5.8706   -2.5566    0.0000 H   0  0  0  0  0  0  0  0  0  0  0  0
   -4.9388   -2.8570    0.0000 H   0  0  0  0  0  0  0  0  0  0  0  0
   -3.0535   -2.4518    0.0000 H   0  0  0  0  0  0  0  0  0  0  0  0
   -2.3274   -1.7950    0.0000 H   0  0  0  0  0  0  0  0  0  0  0  0
   -2.4686    1.0979    0.0000 H   0  0  0  0  0  0  0  0  0  0  0  0
   -3.2349    2.4276    0.0000 H   0  0  0  0  0  0  0  0  0  0  0  0
   -4.1667    2.7280    0.0000 H   0  0  0  0  0  0  0  0  0  0  0  0
   -6.0521    2.3228    0.0000 H   0  0  0  0  0  0  0  0  0  0  0  0
   -1.4830    0.9915    0.0000 H   0  0  0  0  0  0  0  0  0  0  0  0
    2.8198   -2.5066    0.0000 H   0  0  0  0  0  0  0  0  0  0  0  0
    0.9096   -2.2425    0.0000 H   0  0  0  0  0  0  0  0  0  0  0  0
    4.6006   -0.9212    0.0000 H   0  0  0  0  0  0  0  0  0  0  0  0
    3.7268   -2.1377    0.0000 H   0  0  0  0  0  0  0  0  0  0  0  0
    4.3182    2.1406    0.0000 H   0  0  0  0  0  0  0  0  0  0  0  0
    1.6351    3.0057    0.0000 H   0  0  0  0  0  0  0  0  0  0  0  0
    3.5453    2.7417    0.0000 H   0  0  0  0  0  0  0  0  0  0  0  0
   -0.4556    1.1147    0.0000 H   0  0  0  0  0  0  0  0  0  0  0  0
    0.7282    2.6369    0.0000 H   0  0  0  0  0  0  0  0  0  0  0  0
    6.2527    2.7388    0.0000 H   0  0  0  0  0  0  0  0  0  0  0  0
    7.8958   -2.2793    0.0000 H   0  0  0  0  0  0  0  0  0  0  0  0
    4.6324   -2.2867    0.0000 H   0  0  0  0  0  0  0  0  0  0  0  0
   -1.5000    7.9028    0.0000 H   0  0  0  0  0  0  0  0  0  0  0  0
    1.5000    7.9028    0.0000 H   0  0  0  0  0  0  0  0  0  0  0  0
    3.7500    4.0057    0.0000 H   0  0  0  0  0  0  0  0  0  0  0  0
   -3.7500    4.0057    0.0000 H   0  0  0  0  0  0  0  0  0  0  0  0
  1  2  1  0
  1  6  1  0
  1 29  1  0
  1 30  1  0
  2  3  1  0
  2 31  1  0
  2 32  1  0
  3  4  1  0
  3 33  1  0
  3 34  1  0
  4  5  1  0
  4  7  1  0
  4 35  1  0
  5  6  1  0
  5 36  1  0
  5 37  1  0
  6 38  1  0
  6 39  1  0
  7  8  1  0
  7 40  1  0
  8  9  2  0
  8 10  1  0
 10 11  1  0
 10 15  1  0
 11 12  1  0
 11 41  1  0
 11 42  1  0
 12 13  1  0
 12 43  1  0
 12 44  1  0
 13 14  1  0
 13 16  1  0
 13 45  1  0
 14 15  1  0
 14 46  1  0
 14 47  1  0
 15 48  1  0
 15 49  1  0
 16 17  2  0
 16 20  1  0
 17 18  1  0
 17 50  1  0
 18 19  2  0
 19 20  1  0
 19 51  1  0
 20 52  1  0
 21 22  2  0
 21 26  1  0
 21 53  1  0
 22 23  1  0
 22 54  1  0
 23 24  2  0
 23 25  1  0
 25 55  1  0
 26 27  2  0
 26 28  1  0
 28 56  1  0
M  END
$$$$

     RDKit          2D

 40 41  0  0  0  0  0  0  0  0999 V2000
   -6.7537   -1.5578    0.0000 C   0  0  0  0  0  0  0  0  0  0  0  0
   -7.3569   -0.1844    0.0000 C   0  0  0  0  0  0  0  0  0  0  0  0
   -5.8659   -0.3488    0.0000 C   0  0  0  0  0  0  0  0  0  0  0  0
   -4.5211   -1.0131    0.0000 C   0  0  0  0  0  0  0  0  0  0  0  0
   -4.4240   -2.5100    0.0000 O   0  0  0  0  0  0  0  0  0  0  0  0
   -3.2733   -0.1807    0.0000 C   0  0  0  0  0  0  0  0  0  0  0  0
   -1.9284   -0.8450    0.0000 C   0  0  0  0  0  0  0  0  0  0  0  0
   -0.6806   -0.0125    0.0000 C   0  0  0  0  0  0  0  0  0  0  0  0
   -0.7777    1.4843    0.0000 C   0  0  0  0  0  0  0  0  0  0  0  0
   -2.1225    2.1487    0.0000 C   0  0  0  0  0  0  0  0  0  0  0  0
   -3.3703    1.3162    0.0000 C   0  0  0  0  0  0  0  0  0  0  0  0
    0.4701    2.3168    0.0000 O   0  0  0  0  0  0  0  0  0  0  0  0
    1.8149    1.6524    0.0000 C   0  0  0  0  0  0  0  0  0  0  0  0
    3.1598    0.9880    0.0000 C   0  0  0  0  0  0  0  0  0  0  0  0
    4.5046    0.3237    0.0000 C   0  0  0  0  0  0  0  0  0  0  0  0
    5.8495   -0.3407    0.0000 C   0  0  0  0  0  0  0  0  0  0  0  0
    7.1774    0.3568    0.0000 C   0  0  0  0  0  0  0  0  0  0  0  0
    8.2512   -0.6906    0.0000 N   0  0  0  0  0  0  0  0  0  0  0  0
    7.5868   -2.0355    0.0000 C   0  0  0  0  0  0  0  0  0  0  0  0
    6.1025   -1.8192    0.0000 N   0  0  0  0  0  0  0  0  0  0  0  0
   -0.7500    4.6455    0.0000 Cl  0  0  0  0  0  0  0  0  0  0  0  0
   -8.0015   -2.3903    0.0000 H   0  0  0  0  0  0  0  0  0  0  0  0
   -5.7172   -2.6421    0.0000 H   0  0  0  0  0  0  0  0  0  0  0  0
   -7.4539    1.3124    0.0000 H   0  0  0  0  0  0  0  0  0  0  0  0
   -8.8141   -0.5399    0.0000 H   0  0  0  0  0  0  0  0  0  0  0  0
   -5.4452    1.0910    0.0000 H   0  0  0  0  0  0  0  0  0  0  0  0
   -1.8314   -2.3419    0.0000 H   0  0  0  0  0  0  0  0  0  0  0  0
    0.6642   -0.6769    0.0000 H   0  0  0  0  0  0  0  0  0  0  0  0
   -2.2196    3.6455    0.0000 H   0  0  0  0  0  0  0  0  0  0  0  0
   -4.7152    1.9806    0.0000 H   0  0  0  0  0  0  0  0  0  0  0  0
    2.4793    2.9973    0.0000 H   0  0  0  0  0  0  0  0  0  0  0  0
    1.1506    0.3076    0.0000 H   0  0  0  0  0  0  0  0  0  0  0  0
    2.4954   -0.3568    0.0000 H   0  0  0  0  0  0  0  0  0  0  0  0
    3.8241    2.3329    0.0000 H   0  0  0  0  0  0  0  0  0  0  0  0
    3.8402   -1.0212    0.0000 H   0  0  0  0  0  0  0  0  0  0  0  0
    5.1690    1.6685    0.0000 H   0  0  0  0  0  0  0  0  0  0  0  0
    7.3937    1.8411    0.0000 H   0  0  0  0  0  0  0  0  0  0  0  0
    8.2843   -3.3635    0.0000 H   0  0  0  0  0  0  0  0  0  0  0  0
    5.0550   -2.8929    0.0000 H   0  0  0  0  0  0  0  0  0  0  0  0
    0.7500    4.6455    0.0000 H   0  0  0  0  0  0  0  0  0  0  0  0
  1  2  1  0
  1  3  1  0
  1 22  1  0
  1 23  1  0
  2  3  1  0
  2 24  1  0
  2 25  1  0
  3  4  1  0
  3 26  1  0
  4  5  2  0
  4  6  1  0
  6  7  2  0
  6 11  1  0
  7  8  1  0
  7 27  1  0
  8  9  2  0
  8 28  1  0
  9 10  1  0
  9 12  1  0
 10 11  2  0
 10 29  1  0
 11 30  1  0
 12 13  1  0
 13 14  1  0
 13 31  1  0
 13 32  1  0
 14 15  1  0
 14 33  1  0
 14 34  1  0
 15 16  1  0
 15 35  1  0
 15 36  1  0
 16 17  2  0
 16 20  1  0
 17 18  1  0
 17 37  1  0
 18 19  2  0
 19 20  1  0
 19 38  1  0
 20 39  1  0
 21 40  1  0
M  END
$$$$

     RDKit          2D

 36 37  0  0  0  0  0  0  0  0999 V2000
   -4.1082    0.9396    0.0000 C   0  0  0  0  0  0  0  0  0  0  0  0
   -2.6532    1.3043    0.0000 C   0  0  0  0  0  0  0  0  0  0  0  0
   -1.6099    0.2267    0.0000 N   0  0  0  0  0  0  0  0  0  0  0  0
   -2.0215   -1.2158    0.0000 C   0  0  0  0  0  0  0  0  0  0  0  0
   -3.4765   -1.5805    0.0000 C   0  0  0  0  0  0  0  0  0  0  0  0
   -4.5199   -0.5028    0.0000 N   0  0  0  0  0  0  0  0  0  0  0  0
   -0.1549    0.5914    0.0000 S   0  0  0  0  0  0  0  0  0  0  0  0
   -0.3396    2.0800    0.0000 O   0  0  0  0  0  0  0  0  0  0  0  0
    0.3845   -0.8083    0.0000 O   0  0  0  0  0  0  0  0  0  0  0  0
    1.3001    0.9561    0.0000 C   0  0  0  0  0  0  0  0  0  0  0  0
    1.7117    2.3985    0.0000 C   0  0  0  0  0  0  0  0  0  0  0  0
    3.1667    2.7633    0.0000 C   0  0  0  0  0  0  0  0  0  0  0  0
    4.2100    1.6856    0.0000 C   0  0  0  0  0  0  0  0  0  0  0  0
    3.7984    0.2432    0.0000 C   0  0  0  0  0  0  0  0  0  0  0  0
    2.3434   -0.1216    0.0000 C   0  0  0  0  0  0  0  0  0  0  0  0
    1.9318   -1.5640    0.0000 C   0  0  0  0  0  0  0  0  0  0  0  0
    2.9752   -2.6417    0.0000 C   0  0  0  0  0  0  0  0  0  0  0  0
    4.4301   -2.2769    0.0000 C   0  0  0  0  0  0  0  0  0  0  0  0
    4.8418   -0.8345    0.0000 N   0  0  0  0  0  0  0  0  0  0  0  0
   -0.7500    5.2057    0.0000 Cl  0  0  0  0  0  0  0  0  0  0  0  0
   -5.6002    1.0945    0.0000 H   0  0  0  0  0  0  0  0  0  0  0  0
   -4.2148    2.4358    0.0000 H   0  0  0  0  0  0  0  0  0  0  0  0
   -3.2651    2.6739    0.0000 H   0  0  0  0  0  0  0  0  0  0  0  0
   -1.5225    2.2899    0.0000 H   0  0  0  0  0  0  0  0  0  0  0  0
   -0.5595   -1.5514    0.0000 H   0  0  0  0  0  0  0  0  0  0  0  0
   -1.9150   -2.7120    0.0000 H   0  0  0  0  0  0  0  0  0  0  0  0
   -2.8646   -2.9500    0.0000 H   0  0  0  0  0  0  0  0  0  0  0  0
   -4.7190   -2.4209    0.0000 H   0  0  0  0  0  0  0  0  0  0  0  0
   -5.9748   -0.8675    0.0000 H   0  0  0  0  0  0  0  0  0  0  0  0
    0.6683    3.4762    0.0000 H   0  0  0  0  0  0  0  0  0  0  0  0
    3.5783    4.2057    0.0000 H   0  0  0  0  0  0  0  0  0  0  0  0
    5.6650    2.0503    0.0000 H   0  0  0  0  0  0  0  0  0  0  0  0
    0.4768   -1.9287    0.0000 H   0  0  0  0  0  0  0  0  0  0  0  0
    2.5635   -4.0841    0.0000 H   0  0  0  0  0  0  0  0  0  0  0  0
    5.4735   -3.3546    0.0000 H   0  0  0  0  0  0  0  0  0  0  0  0
    0.7500    5.2057    0.0000 H   0  0  0  0  0  0  0  0  0  0  0  0
  1  2  1  0
  1  6  1  0
  1 21  1  0
  1 22  1  0
  2  3  1  0
  2 23  1  0
  2 24  1  0
  3  4  1  0
  3  7  1  0
  4  5  1  0
  4 25  1  0
  4 26  1  0
  5  6  1  0
  5 27  1  0
  5 28  1  0
  6 29  1  0
  7  8  2  0
  7  9  2  0
  7 10  1  0
 10 11  2  0
 10 15  1  0
 11 12  1  0
 11 30  1  0
 12 13  2  0
 12 31  1  0
 13 14  1  0
 13 32  1  0
 14 15  2  0
 14 19  1  0
 15 16  1  0
 16 17  2  0
 16 33  1  0
 17 18  1  0
 17 34  1  0
 18 19  2  0
 18 35  1  0
 20 36  1  0
M  END
$$$$

     RDKit          2D

 15 16  0  0  0  0  0  0  0  0999 V2000
   -2.7275   -0.6429    0.0000 C   0  0  0  0  0  0  0  0  0  0  0  0
   -1.6547   -1.6912    0.0000 N   0  0  0  0  0  0  0  0  0  0  0  0
   -0.3261   -0.9948    0.0000 C   0  0  0  0  0  0  0  0  0  0  0  0
   -0.5778    0.4839    0.0000 C   0  0  0  0  0  0  0  0  0  0  0  0
   -2.0620    0.7014    0.0000 N   0  0  0  0  0  0  0  0  0  0  0  0
    0.5769    1.4412    0.0000 C   0  0  0  0  0  0  0  0  0  0  0  0
    1.9834    0.9199    0.0000 C   0  0  0  0  0  0  0  0  0  0  0  0
    2.2351   -0.5588    0.0000 C   0  0  0  0  0  0  0  0  0  0  0  0
    1.0804   -1.5162    0.0000 C   0  0  0  0  0  0  0  0  0  0  0  0
    1.3321   -2.9949    0.0000 Br  0  0  0  0  0  0  0  0  0  0  0  0
    3.6416   -1.0802    0.0000 Br  0  0  0  0  0  0  0  0  0  0  0  0
    3.1381    1.8773    0.0000 Br  0  0  0  0  0  0  0  0  0  0  0  0
    0.3252    2.9200    0.0000 Br  0  0  0  0  0  0  0  0  0  0  0  0
   -4.2062   -0.8946    0.0000 H   0  0  0  0  0  0  0  0  0  0  0  0
   -2.7584    2.0300    0.0000 H   0  0  0  0  0  0  0  0  0  0  0  0
  1  2  2  0
  1  5  1  0
  1 14  1  0
  2  3  1  0
  3  4  2  0
  3  9  1  0
  4  5  1  0
  4  6  1  0
  5 15  1  0
  6  7  2  0
  6 13  1  0
  7  8  1  0
  7 12  1  0
  8  9  2  0
  8 11  1  0
  9 10  1  0
M  END
$$$$

     RDKit          2D

 34 35  0  0  0  0  0  0  0  0999 V2000
   -4.8696   -1.3483    0.0000 C   0  0  0  0  0  0  0  0  0  0  0  0
   -5.3574    0.0701    0.0000 C   0  0  0  0  0  0  0  0  0  0  0  0
   -4.3730    1.2019    0.0000 C   0  0  0  0  0  0  0  0  0  0  0  0
   -2.9006    0.9152    0.0000 C   0  0  0  0  0  0  0  0  0  0  0  0
   -2.4127   -0.5033    0.0000 C   0  0  0  0  0  0  0  0  0  0  0  0
   -3.3972   -1.6350    0.0000 C   0  0  0  0  0  0  0  0  0  0  0  0
   -0.9404   -0.7900    0.0000 C   0  0  0  0  0  0  0  0  0  0  0  0
   -0.4525   -2.2084    0.0000 O   0  0  0  0  0  0  0  0  0  0  0  0
    0.0441    0.3417    0.0000 C   0  0  0  0  0  0  0  0  0  0  0  0
   -0.4438    1.7602    0.0000 C   0  0  0  0  0  0  0  0  0  0  0  0
   -1.9161    2.0469    0.0000 C   0  0  0  0  0  0  0  0  0  0  0  0
   -2.4040    3.4653    0.0000 O   0  0  0  0  0  0  0  0  0  0  0  0
    0.5407    2.8919    0.0000 S   0  0  0  0  0  0  0  0  0  0  0  0
    2.0130    2.6052    0.0000 C   0  0  0  0  0  0  0  0  0  0  0  0
    3.4854    2.3185    0.0000 C   0  0  0  0  0  0  0  0  0  0  0  0
    4.9577    2.0318    0.0000 O   0  0  0  0  0  0  0  0  0  0  0  0
    1.5164    0.0550    0.0000 S   0  0  0  0  0  0  0  0  0  0  0  0
    2.0043   -1.3634    0.0000 C   0  0  0  0  0  0  0  0  0  0  0  0
    2.4922   -2.7819    0.0000 C   0  0  0  0  0  0  0  0  0  0  0  0
    2.9800   -4.2003    0.0000 O   0  0  0  0  0  0  0  0  0  0  0  0
   -5.8540   -2.4800    0.0000 H   0  0  0  0  0  0  0  0  0  0  0  0
   -6.8298    0.3568    0.0000 H   0  0  0  0  0  0  0  0  0  0  0  0
   -4.8608    2.6203    0.0000 H   0  0  0  0  0  0  0  0  0  0  0  0
   -2.9093   -3.0535    0.0000 H   0  0  0  0  0  0  0  0  0  0  0  0
    2.2997    4.0776    0.0000 H   0  0  0  0  0  0  0  0  0  0  0  0
    1.7263    1.1329    0.0000 H   0  0  0  0  0  0  0  0  0  0  0  0
    3.1986    0.8462    0.0000 H   0  0  0  0  0  0  0  0  0  0  0  0
    3.7721    3.7908    0.0000 H   0  0  0  0  0  0  0  0  0  0  0  0
    5.4456    0.6133    0.0000 H   0  0  0  0  0  0  0  0  0  0  0  0
    3.4227   -0.8755    0.0000 H   0  0  0  0  0  0  0  0  0  0  0  0
    0.5859   -1.8513    0.0000 H   0  0  0  0  0  0  0  0  0  0  0  0
    1.0737   -3.2697    0.0000 H   0  0  0  0  0  0  0  0  0  0  0  0
    3.9106   -2.2940    0.0000 H   0  0  0  0  0  0  0  0  0  0  0  0
    4.4524   -4.4870    0.0000 H   0  0  0  0  0  0  0  0  0  0  0  0
  1  2  2  0
  1  6  1  0
  1 21  1  0
  2  3  1  0
  2 22  1  0
  3  4  2  0
  3 23  1  0
  4  5  1  0
  4 11  1  0
  5  6  2  0
  5  7  1  0
  6 24  1  0
  7  8  2  0
  7  9  1  0
  9 10  2  0
  9 17  1  0
 10 11  1  0
 10 13  1  0
 11 12  2  0
 13 14  1  0
 14 15  1  0
 14 25  1  0
 14 26  1  0
 15 16  1  0
 15 27  1  0
 15 28  1  0
 16 29  1  0
 17 18  1  0
 18 19  1  0
 18 30  1  0
 18 31  1  0
 19 20  1  0
 19 32  1  0
 19 33  1  0
 20 34  1  0
M  END
$$$$

     RDKit          2D

 52 54  0  0  0  0  0  0  0  0999 V2000
    6.3263   -3.0772    0.0000 C   0  0  0  0  0  0  0  0  0  0  0  0
    5.3549   -1.9342    0.0000 C   0  0  0  0  0  0  0  0  0  0  0  0
    4.3836   -0.7912    0.0000 C   0  0  0  0  0  0  0  0  0  0  0  0
    5.5266    0.1802    0.0000 C   0  0  0  0  0  0  0  0  0  0  0  0
    6.6696    1.1515    0.0000 O   0  0  0  0  0  0  0  0  0  0  0  0
    3.2406   -1.7626    0.0000 N   0  0  0  0  0  0  0  0  0  0  0  0
    1.8278   -1.2584    0.0000 C   0  0  0  0  0  0  0  0  0  0  0  0
    0.6848   -2.2297    0.0000 N   0  0  0  0  0  0  0  0  0  0  0  0
   -0.7279   -1.7255    0.0000 C   0  0  0  0  0  0  0  0  0  0  0  0
   -0.9976   -0.2500    0.0000 C   0  0  0  0  0  0  0  0  0  0  0  0
    0.1454    0.7214    0.0000 C   0  0  0  0  0  0  0  0  0  0  0  0
    1.5581    0.2172    0.0000 N   0  0  0  0  0  0  0  0  0  0  0  0
   -0.4252    2.1086    0.0000 N   0  0  0  0  0  0  0  0  0  0  0  0
   -1.9209    1.9946    0.0000 C   0  0  0  0  0  0  0  0  0  0  0  0
   -2.2746    0.5370    0.0000 N   0  0  0  0  0  0  0  0  0  0  0  0
    0.3617    3.3857    0.0000 C   0  0  0  0  0  0  0  0  0  0  0  0
   -0.9153    4.1726    0.0000 C   0  0  0  0  0  0  0  0  0  0  0  0
    1.1486    4.6627    0.0000 C   0  0  0  0  0  0  0  0  0  0  0  0
   -1.8709   -2.6969    0.0000 N   0  0  0  0  0  0  0  0  0  0  0  0
   -3.2836   -2.1927    0.0000 C   0  0  0  0  0  0  0  0  0  0  0  0
   -4.6963   -1.6885    0.0000 C   0  0  0  0  0  0  0  0  0  0  0  0
   -4.9661   -0.2129    0.0000 C   0  0  0  0  0  0  0  0  0  0  0  0
   -6.3788    0.2913    0.0000 C   0  0  0  0  0  0  0  0  0  0  0  0
   -7.5218   -0.6801    0.0000 C   0  0  0  0  0  0  0  0  0  0  0  0
   -7.2521   -2.1556    0.0000 C   0  0  0  0  0  0  0  0  0  0  0  0
   -5.8394   -2.6598    0.0000 C   0  0  0  0  0  0  0  0  0  0  0  0
    7.4693   -2.1059    0.0000 H   0  0  0  0  0  0  0  0  0  0  0  0
    5.1833   -4.0486    0.0000 H   0  0  0  0  0  0  0  0  0  0  0  0
    7.2976   -4.2202    0.0000 H   0  0  0  0  0  0  0  0  0  0  0  0
    4.3388   -3.0377    0.0000 H   0  0  0  0  0  0  0  0  0  0  0  0
    6.0947   -1.4472    0.0000 H   0  0  0  0  0  0  0  0  0  0  0  0
    3.4122    0.3518    0.0000 H   0  0  0  0  0  0  0  0  0  0  0  0
    4.5552    1.3232    0.0000 H   0  0  0  0  0  0  0  0  0  0  0  0
    6.1782   -0.4198    0.0000 H   0  0  0  0  0  0  0  0  0  0  0  0
    6.3999    2.6271    0.0000 H   0  0  0  0  0  0  0  0  0  0  0  0
    3.3284   -3.2600    0.0000 H   0  0  0  0  0  0  0  0  0  0  0  0
   -2.8922    3.1376    0.0000 H   0  0  0  0  0  0  0  0  0  0  0  0
    1.6387    2.5987    0.0000 H   0  0  0  0  0  0  0  0  0  0  0  0
   -0.5460    4.9776    0.0000 H   0  0  0  0  0  0  0  0  0  0  0  0
   -1.7022    2.8955    0.0000 H   0  0  0  0  0  0  0  0  0  0  0  0
   -2.1923    4.9595    0.0000 H   0  0  0  0  0  0  0  0  0  0  0  0
    0.4568    5.2158    0.0000 H   0  0  0  0  0  0  0  0  0  0  0  0
    2.4256    3.8758    0.0000 H   0  0  0  0  0  0  0  0  0  0  0  0
    1.9355    5.9397    0.0000 H   0  0  0  0  0  0  0  0  0  0  0  0
   -1.6012   -4.1724    0.0000 H   0  0  0  0  0  0  0  0  0  0  0  0
   -3.7878   -3.6054    0.0000 H   0  0  0  0  0  0  0  0  0  0  0  0
   -2.7794   -0.7799    0.0000 H   0  0  0  0  0  0  0  0  0  0  0  0
   -3.8230    0.7584    0.0000 H   0  0  0  0  0  0  0  0  0  0  0  0
   -6.6485    1.7669    0.0000 H   0  0  0  0  0  0  0  0  0  0  0  0
   -8.9345   -0.1759    0.0000 H   0  0  0  0  0  0  0  0  0  0  0  0
   -8.3951   -3.1270    0.0000 H   0  0  0  0  0  0  0  0  0  0  0  0
   -5.5696   -4.1354    0.0000 H   0  0  0  0  0  0  0  0  0  0  0  0
  1  2  1  0
  1 27  1  0
  1 28  1  0
  1 29  1  0
  2  3  1  0
  2 30  1  0
  2 31  1  0
  3  4  1  0
  3  6  1  0
  3 32  1  1
  4  5  1  0
  4 33  1  0
  4 34  1  0
  5 35  1  0
  6  7  1  0
  6 36  1  0
  7  8  2  0
  7 12  1  0
  8  9  1  0
  9 10  2  0
  9 19  1  0
 10 11  1  0
 10 15  1  0
 11 12  2  0
 11 13  1  0
 13 14  1  0
 13 16  1  0
 14 15  2  0
 14 37  1  0
 16 17  1  0
 16 18  1  0
 16 38  1  0
 17 39  1  0
 17 40  1  0
 17 41  1  0
 18 42  1  0
 18 43  1  0
 18 44  1  0
 19 20  1  0
 19 45  1  0
 20 21  1  0
 20 46  1  0
 20 47  1  0
 21 22  2  0
 21 26  1  0
 22 23  1  0
 22 48  1  0
 23 24  2  0
 23 49  1  0
 24 25  1  0
 24 50  1  0
 25 26  2  0
 25 51  1  0
 26 52  1  0
M  END
$$$$

     RDKit          2D

 44 45  0  0  1  0  0  0  0  0999 V2000
    5.1189    1.1757    0.0000 C   0  0  0  0  0  0  0  0  0  0  0  0
    3.9369    0.2522    0.0000 C   0  0  0  0  0  0  0  0  0  0  0  0
    3.6646   -1.2228    0.0000 C   0  0  0  0  0  0  0  0  0  0  0  0
    2.7379   -2.4023    0.0000 C   0  0  0  0  0  0  0  0  0  0  0  0
    1.3692   -3.0161    0.0000 C   0  0  0  0  0  0  0  0  0  0  0  0
    0.0866   -2.2384    0.0000 C   0  0  0  0  0  0  0  0  0  0  0  0
   -1.4106   -2.1458    0.0000 C   0  0  0  0  0  0  0  0  0  0  0  0
   -2.1848   -0.8611    0.0000 C   0  0  0  0  0  0  0  0  0  0  0  0
   -3.5816   -1.4080    0.0000 C   0  0  0  0  0  0  0  0  0  0  0  0
   -4.5333   -0.2486    0.0000 C   0  0  0  0  0  0  0  0  0  0  0  0
   -3.7248    1.0148    0.0000 C   0  0  0  0  0  0  0  0  0  0  0  0
   -2.2734    0.6363    0.0000 C   0  0  0  0  0  0  0  0  0  0  0  0
   -1.6559    2.0033    0.0000 C   0  0  0  0  0  0  0  0  0  0  0  0
   -0.1801    2.2717    0.0000 C   0  0  0  0  0  0  0  0  0  0  0  0
    1.0019    3.1952    0.0000 C   0  0  0  0  0  0  0  0  0  0  0  0
    2.4334    2.7470    0.0000 C   0  0  0  0  0  0  0  0  0  0  0  0
    3.2111    4.0296    0.0000 O   0  0  0  0  0  0  0  0  0  0  0  0
    3.4926    1.6849    0.0000 O   0  0  0  0  0  0  0  0  0  0  0  0
   -2.9200    1.9898    0.0000 O   0  0  0  0  0  0  0  0  0  0  0  0
   -5.7054    0.6875    0.0000 O   0  0  0  0  0  0  0  0  0  0  0  0
    5.8670    0.2183    0.0000 H   0  0  0  0  0  0  0  0  0  0  0  0
    4.1955    2.3578    0.0000 H   0  0  0  0  0  0  0  0  0  0  0  0
    6.3010    2.0992    0.0000 H   0  0  0  0  0  0  0  0  0  0  0  0
    4.9341   -0.1965    0.0000 H   0  0  0  0  0  0  0  0  0  0  0  0
    4.4139   -2.1792    0.0000 H   0  0  0  0  0  0  0  0  0  0  0  0
    5.0123   -1.1450    0.0000 H   0  0  0  0  0  0  0  0  0  0  0  0
    2.8264   -3.8997    0.0000 H   0  0  0  0  0  0  0  0  0  0  0  0
    3.8445   -2.9040    0.0000 H   0  0  0  0  0  0  0  0  0  0  0  0
    0.1872   -3.9396    0.0000 H   0  0  0  0  0  0  0  0  0  0  0  0
    1.8135   -4.4488    0.0000 H   0  0  0  0  0  0  0  0  0  0  0  0
    0.5348   -0.8069    0.0000 H   0  0  0  0  0  0  0  0  0  0  0  0
   -2.3356   -3.3266    0.0000 H   0  0  0  0  0  0  0  0  0  0  0  0
   -2.4908   -2.3295    0.0000 H   0  0  0  0  0  0  0  0  0  0  0  0
   -3.2344   -2.8673    0.0000 H   0  0  0  0  0  0  0  0  0  0  0  0
   -4.8341   -2.2334    0.0000 H   0  0  0  0  0  0  0  0  0  0  0  0
   -5.5869   -1.3164    0.0000 H   0  0  0  0  0  0  0  0  0  0  0  0
   -5.0659    1.6868    0.0000 H   0  0  0  0  0  0  0  0  0  0  0  0
   -3.7350    2.5148    0.0000 H   0  0  0  0  0  0  0  0  0  0  0  0
   -1.2058    3.4342    0.0000 H   0  0  0  0  0  0  0  0  0  0  0  0
   -2.1984    2.7035    0.0000 H   0  0  0  0  0  0  0  0  0  0  0  0
    0.4336    0.9030    0.0000 H   0  0  0  0  0  0  0  0  0  0  0  0
    1.0945    4.6923    0.0000 H   0  0  0  0  0  0  0  0  0  0  0  0
   -2.5524    2.6971    0.0000 H   0  0  0  0  0  0  0  0  0  0  0  0
   -7.1021    0.1406    0.0000 H   0  0  0  0  0  0  0  0  0  0  0  0
  1 21  1  0
  1 22  1  0
  1 23  1  0
  1  2  1  0
  2  3  1  0
  2 18  1  0
  2 24  1  6
  3  4  1  0
  3 25  1  0
  3 26  1  0
  4  5  1  0
  4 27  1  0
  4 28  1  0
  5  6  1  0
  5 29  1  0
  5 30  1  0
  6  7  2  0
  6 31  1  0
  7  8  1  0
  7 32  1  0
  8  9  1  0
  8 12  1  0
  8 33  1  6
  9 10  1  0
  9 34  1  0
  9 35  1  0
 10 11  1  0
 10 20  1  0
 10 36  1  1
 11 12  1  0
 11 37  1  0
 11 38  1  0
 12 13  1  0
 12 19  1  6
 13 14  1  0
 13 39  1  0
 13 40  1  0
 14 15  2  0
 14 41  1  0
 15 16  1  0
 15 42  1  0
 16 18  1  0
 16 17  2  0
 19 43  1  0
 20 44  1  0
M  END
$$$$

     RDKit          2D

 28 29  0  0  0  0  0  0  0  0999 V2000
   -4.6675   -0.6052    0.0000 C   0  0  0  0  0  0  0  0  0  0  0  0
   -4.6072    0.8935    0.0000 C   0  0  0  0  0  0  0  0  0  0  0  0
   -3.2791    1.5907    0.0000 C   0  0  0  0  0  0  0  0  0  0  0  0
   -2.0113    0.7891    0.0000 C   0  0  0  0  0  0  0  0  0  0  0  0
   -2.0715   -0.7096    0.0000 C   0  0  0  0  0  0  0  0  0  0  0  0
   -3.3997   -1.4068    0.0000 C   0  0  0  0  0  0  0  0  0  0  0  0
   -0.8037   -1.5112    0.0000 C   0  0  0  0  0  0  0  0  0  0  0  0
   -0.8640   -3.0100    0.0000 O   0  0  0  0  0  0  0  0  0  0  0  0
    0.5244   -0.8140    0.0000 C   0  0  0  0  0  0  0  0  0  0  0  0
    1.7923   -1.6156    0.0000 C   0  0  0  0  0  0  0  0  0  0  0  0
    3.1204   -0.9184    0.0000 C   0  0  0  0  0  0  0  0  0  0  0  0
    3.1807    0.5804    0.0000 C   0  0  0  0  0  0  0  0  0  0  0  0
    1.9128    1.3819    0.0000 C   0  0  0  0  0  0  0  0  0  0  0  0
    0.5847    0.6848    0.0000 C   0  0  0  0  0  0  0  0  0  0  0  0
    1.9731    2.8807    0.0000 O   0  0  0  0  0  0  0  0  0  0  0  0
    4.5088    1.2775    0.0000 O   0  0  0  0  0  0  0  0  0  0  0  0
    4.3883   -1.7200    0.0000 N   0  0  0  0  0  0  0  0  0  0  0  0
    4.3280   -3.2188    0.0000 O   0  0  0  0  0  0  0  0  0  0  0  0
    5.7164   -1.0228    0.0000 O   0  0  0  0  0  0  0  0  0  0  0  0
   -1.2021    1.3494    0.0000 F   0  0  0  0  0  0  0  0  0  0  0  0
   -5.9956   -1.3024    0.0000 H   0  0  0  0  0  0  0  0  0  0  0  0
   -5.8751    1.6951    0.0000 H   0  0  0  0  0  0  0  0  0  0  0  0
   -3.2188    3.0895    0.0000 H   0  0  0  0  0  0  0  0  0  0  0  0
   -3.4599   -2.9056    0.0000 H   0  0  0  0  0  0  0  0  0  0  0  0
    1.7320   -3.1144    0.0000 H   0  0  0  0  0  0  0  0  0  0  0  0
   -0.1768    1.3082    0.0000 H   0  0  0  0  0  0  0  0  0  0  0  0
    3.3012    3.5779    0.0000 H   0  0  0  0  0  0  0  0  0  0  0  0
    4.5691    2.7763    0.0000 H   0  0  0  0  0  0  0  0  0  0  0  0
  1  2  2  0
  1  6  1  0
  1 21  1  0
  2  3  1  0
  2 22  1  0
  3  4  2  0
  3 23  1  0
  4  5  1  0
  4 20  1  0
  5  6  2  0
  5  7  1  0
  6 24  1  0
  7  8  2  0
  7  9  1  0
  9 10  2  0
  9 14  1  0
 10 11  1  0
 10 25  1  0
 11 12  2  0
 11 17  1  0
 12 13  1  0
 12 16  1  0
 13 14  2  0
 13 15  1  0
 14 26  1  0
 15 27  1  0
 16 28  1  0
 17 18  2  0
 17 19  1  0
M  CHG  2  17   1  19  -1
M  END
$$$$

     RDKit          2D

 33 33  0  0  0  0  0  0  0  0999 V2000
   -3.5920   -2.0312    0.0000 C   0  0  0  0  0  0  0  0  0  0  0  0
   -4.0209   -0.5938    0.0000 C   0  0  0  0  0  0  0  0  0  0  0  0
   -2.9905    0.4963    0.0000 C   0  0  0  0  0  0  0  0  0  0  0  0
   -1.5313    0.1491    0.0000 C   0  0  0  0  0  0  0  0  0  0  0  0
   -0.5009    1.2392    0.0000 C   0  0  0  0  0  0  0  0  0  0  0  0
   -0.9298    2.6765    0.0000 C   0  0  0  0  0  0  0  0  0  0  0  0
   -2.3890    3.0238    0.0000 C   0  0  0  0  0  0  0  0  0  0  0  0
   -3.4194    1.9337    0.0000 C   0  0  0  0  0  0  0  0  0  0  0  0
   -4.8786    2.2810    0.0000 Cl  0  0  0  0  0  0  0  0  0  0  0  0
   -1.1024   -1.2883    0.0000 C   0  0  0  0  0  0  0  0  0  0  0  0
   -2.1328   -2.3784    0.0000 C   0  0  0  0  0  0  0  0  0  0  0  0
    0.3568   -1.6356    0.0000 S   0  0  0  0  0  0  0  0  0  0  0  0
    0.0095   -3.0949    0.0000 O   0  0  0  0  0  0  0  0  0  0  0  0
    0.7041   -0.1764    0.0000 O   0  0  0  0  0  0  0  0  0  0  0  0
    1.8161   -1.9829    0.0000 N   0  0  0  0  0  0  0  0  0  0  0  0
    2.8464   -0.8928    0.0000 C   0  0  0  0  0  0  0  0  0  0  0  0
    3.8768    0.1973    0.0000 C   0  0  0  0  0  0  0  0  0  0  0  0
    4.9072    1.2874    0.0000 N   0  0  0  0  0  0  0  0  0  0  0  0
   -0.7500    5.4612    0.0000 Cl  0  0  0  0  0  0  0  0  0  0  0  0
   -4.6224   -3.1213    0.0000 H   0  0  0  0  0  0  0  0  0  0  0  0
   -5.4802   -0.2465    0.0000 H   0  0  0  0  0  0  0  0  0  0  0  0
    0.9583    0.8919    0.0000 H   0  0  0  0  0  0  0  0  0  0  0  0
    0.1006    3.7666    0.0000 H   0  0  0  0  0  0  0  0  0  0  0  0
   -2.8179    4.4612    0.0000 H   0  0  0  0  0  0  0  0  0  0  0  0
   -1.7039   -3.8158    0.0000 H   0  0  0  0  0  0  0  0  0  0  0  0
    2.2449   -3.4203    0.0000 H   0  0  0  0  0  0  0  0  0  0  0  0
    3.9365   -1.9232    0.0000 H   0  0  0  0  0  0  0  0  0  0  0  0
    1.7563    0.1376    0.0000 H   0  0  0  0  0  0  0  0  0  0  0  0
    2.7867    1.2277    0.0000 H   0  0  0  0  0  0  0  0  0  0  0  0
    4.9669   -0.8331    0.0000 H   0  0  0  0  0  0  0  0  0  0  0  0
    4.4783    2.7248    0.0000 H   0  0  0  0  0  0  0  0  0  0  0  0
    6.3664    0.9401    0.0000 H   0  0  0  0  0  0  0  0  0  0  0  0
    0.7500    5.4612    0.0000 H   0  0  0  0  0  0  0  0  0  0  0  0
  1  2  2  0
  1 11  1  0
  1 20  1  0
  2  3  1  0
  2 21  1  0
  3  4  2  0
  3  8  1  0
  4  5  1  0
  4 10  1  0
  5  6  2  0
  5 22  1  0
  6  7  1  0
  6 23  1  0
  7  8  2  0
  7 24  1  0
  8  9  1  0
 10 11  2  0
 10 12  1  0
 11 25  1  0
 12 13  2  0
 12 14  2  0
 12 15  1  0
 15 16  1  0
 15 26  1  0
 16 17  1  0
 16 27  1  0
 16 28  1  0
 17 18  1  0
 17 29  1  0
 17 30  1  0
 18 31  1  0
 18 32  1  0
 19 33  1  0
M  END
$$$$

     RDKit          2D

 48 51  0  0  1  0  0  0  0  0999 V2000
   -0.3687   -4.9867    0.0000 C   0  0  0  0  0  0  0  0  0  0  0  0
   -0.2707   -3.4899    0.0000 C   0  0  0  0  0  0  0  0  0  0  0  0
   -0.1727   -1.9931    0.0000 C   0  0  0  0  0  0  0  0  0  0  0  0
   -1.6638   -2.1565    0.0000 C   0  0  0  0  0  0  0  0  0  0  0  0
   -2.5509   -0.9469    0.0000 C   0  0  0  0  0  0  0  0  0  0  0  0
   -1.9469    0.4261    0.0000 C   0  0  0  0  0  0  0  0  0  0  0  0
   -2.8339    1.6357    0.0000 C   0  0  0  0  0  0  0  0  0  0  0  0
   -4.3250    1.4722    0.0000 C   0  0  0  0  0  0  0  0  0  0  0  0
   -4.9290    0.0992    0.0000 C   0  0  0  0  0  0  0  0  0  0  0  0
   -4.0419   -1.1104    0.0000 C   0  0  0  0  0  0  0  0  0  0  0  0
   -6.4201   -0.0642    0.0000 O   0  0  0  0  0  0  0  0  0  0  0  0
   -0.4558    0.5895    0.0000 C   0  0  0  0  0  0  0  0  0  0  0  0
    0.4313   -0.6201    0.0000 C   0  0  0  0  0  0  0  0  0  0  0  0
    1.9223   -0.4566    0.0000 C   0  0  0  0  0  0  0  0  0  0  0  0
    2.5263    0.9164    0.0000 C   0  0  0  0  0  0  0  0  0  0  0  0
    1.6393    2.1260    0.0000 C   0  0  0  0  0  0  0  0  0  0  0  0
    0.1482    1.9625    0.0000 C   0  0  0  0  0  0  0  0  0  0  0  0
    0.2462    3.4593    0.0000 C   0  0  0  0  0  0  0  0  0  0  0  0
    0.3441    4.9561    0.0000 C   0  0  0  0  0  0  0  0  0  0  0  0
    4.0174    1.0798    0.0000 C   0  0  0  0  0  0  0  0  0  0  0  0
    4.9045   -0.1298    0.0000 C   0  0  0  0  0  0  0  0  0  0  0  0
    4.3005   -1.5028    0.0000 C   0  0  0  0  0  0  0  0  0  0  0  0
    2.8094   -1.6662    0.0000 C   0  0  0  0  0  0  0  0  0  0  0  0
    6.3956    0.0336    0.0000 O   0  0  0  0  0  0  0  0  0  0  0  0
    1.1281   -5.0847    0.0000 H   0  0  0  0  0  0  0  0  0  0  0  0
   -1.8655   -4.8887    0.0000 H   0  0  0  0  0  0  0  0  0  0  0  0
   -0.4666   -6.4835    0.0000 H   0  0  0  0  0  0  0  0  0  0  0  0
   -1.0666   -3.5352    0.0000 H   0  0  0  0  0  0  0  0  0  0  0  0
    1.2261   -3.5879    0.0000 H   0  0  0  0  0  0  0  0  0  0  0  0
    1.2843   -2.3495    0.0000 H   0  0  0  0  0  0  0  0  0  0  0  0
   -1.5356   -2.9433    0.0000 H   0  0  0  0  0  0  0  0  0  0  0  0
   -3.0090   -2.8201    0.0000 H   0  0  0  0  0  0  0  0  0  0  0  0
   -2.2299    3.0087    0.0000 H   0  0  0  0  0  0  0  0  0  0  0  0
   -5.2121    2.6818    0.0000 H   0  0  0  0  0  0  0  0  0  0  0  0
   -4.6459   -2.4834    0.0000 H   0  0  0  0  0  0  0  0  0  0  0  0
   -7.3072    1.1454    0.0000 H   0  0  0  0  0  0  0  0  0  0  0  0
    1.3981    3.6064    0.0000 H   0  0  0  0  0  0  0  0  0  0  0  0
    2.9845    2.7895    0.0000 H   0  0  0  0  0  0  0  0  0  0  0  0
   -1.3088    2.3189    0.0000 H   0  0  0  0  0  0  0  0  0  0  0  0
    1.7437    3.5445    0.0000 H   0  0  0  0  0  0  0  0  0  0  0  0
   -1.2506    3.5573    0.0000 H   0  0  0  0  0  0  0  0  0  0  0  0
   -1.1527    5.0541    0.0000 H   0  0  0  0  0  0  0  0  0  0  0  0
    1.8409    4.8582    0.0000 H   0  0  0  0  0  0  0  0  0  0  0  0
    0.4421    6.4529    0.0000 H   0  0  0  0  0  0  0  0  0  0  0  0
    4.6214    2.4528    0.0000 H   0  0  0  0  0  0  0  0  0  0  0  0
    5.1876   -2.7124    0.0000 H   0  0  0  0  0  0  0  0  0  0  0  0
    2.2054   -3.0393    0.0000 H   0  0  0  0  0  0  0  0  0  0  0  0
    7.2826   -1.1759    0.0000 H   0  0  0  0  0  0  0  0  0  0  0  0
  1  2  1  0
  1 25  1  0
  1 26  1  0
  1 27  1  0
  2  3  1  0
  2 28  1  0
  2 29  1  0
  3  4  1  0
  3 13  1  0
  3 30  1  1
  4  5  1  0
  4 31  1  0
  4 32  1  0
  5  6  2  0
  5 10  1  0
  6  7  1  0
  6 12  1  0
  7  8  2  0
  7 33  1  0
  8  9  1  0
  8 34  1  0
  9 10  2  0
  9 11  1  0
 10 35  1  0
 11 36  1  0
 12 13  2  0
 12 17  1  0
 13 14  1  0
 14 15  2  0
 14 23  1  0
 15 16  1  0
 15 20  1  0
 16 17  1  0
 16 37  1  0
 16 38  1  0
 17 39  1  6
 17 18  1  0
 18 19  1  0
 18 40  1  0
 18 41  1  0
 19 42  1  0
 19 43  1  0
 19 44  1  0
 20 21  2  0
 20 45  1  0
 21 22  1  0
 21 24  1  0
 22 23  2  0
 22 46  1  0
 23 47  1  0
 24 48  1  0
M  END
$$$$

     RDKit          2D

 42 44  0  0  0  0  0  0  0  0999 V2000
   -6.0000   -0.9279    0.0000 C   0  0  0  0  0  0  0  0  0  0  0  0
   -7.5000   -0.9279    0.0000 C   0  0  0  0  0  0  0  0  0  0  0  0
   -8.2500    0.3712    0.0000 C   0  0  0  0  0  0  0  0  0  0  0  0
   -7.5000    1.6702    0.0000 C   0  0  0  0  0  0  0  0  0  0  0  0
   -6.0000    1.6702    0.0000 C   0  0  0  0  0  0  0  0  0  0  0  0
   -5.2500    0.3712    0.0000 C   0  0  0  0  0  0  0  0  0  0  0  0
   -3.7500    0.3712    0.0000 C   0  0  0  0  0  0  0  0  0  0  0  0
   -3.0000   -0.9279    0.0000 C   0  0  0  0  0  0  0  0  0  0  0  0
   -1.5000   -0.9279    0.0000 C   0  0  0  0  0  0  0  0  0  0  0  0
   -0.7500   -2.2269    0.0000 C   0  0  0  0  0  0  0  0  0  0  0  0
    0.7500   -2.2269    0.0000 C   0  0  0  0  0  0  0  0  0  0  0  0
    1.5000   -0.9279    0.0000 C   0  0  0  0  0  0  0  0  0  0  0  0
    0.7500    0.3712    0.0000 C   0  0  0  0  0  0  0  0  0  0  0  0
   -0.7500    0.3712    0.0000 C   0  0  0  0  0  0  0  0  0  0  0  0
    3.0000   -0.9279    0.0000 C   0  0  0  0  0  0  0  0  0  0  0  0
    3.7500    0.3712    0.0000 C   0  0  0  0  0  0  0  0  0  0  0  0
    5.2500    0.3712    0.0000 C   0  0  0  0  0  0  0  0  0  0  0  0
    6.0000   -0.9279    0.0000 C   0  0  0  0  0  0  0  0  0  0  0  0
    7.5000   -0.9279    0.0000 C   0  0  0  0  0  0  0  0  0  0  0  0
    8.2500    0.3712    0.0000 C   0  0  0  0  0  0  0  0  0  0  0  0
    7.5000    1.6702    0.0000 C   0  0  0  0  0  0  0  0  0  0  0  0
    6.0000    1.6702    0.0000 C   0  0  0  0  0  0  0  0  0  0  0  0
    9.7500    0.3712    0.0000 O   0  0  0  0  0  0  0  0  0  0  0  0
    1.5000   -3.5260    0.0000 Br  0  0  0  0  0  0  0  0  0  0  0  0
   -9.7500    0.3712    0.0000 O   0  0  0  0  0  0  0  0  0  0  0  0
   -5.2500   -2.2269    0.0000 H   0  0  0  0  0  0  0  0  0  0  0  0
   -8.2500   -2.2269    0.0000 H   0  0  0  0  0  0  0  0  0  0  0  0
   -8.2500    2.9692    0.0000 H   0  0  0  0  0  0  0  0  0  0  0  0
   -5.2500    2.9692    0.0000 H   0  0  0  0  0  0  0  0  0  0  0  0
   -3.0000    1.6702    0.0000 H   0  0  0  0  0  0  0  0  0  0  0  0
   -3.7500   -2.2269    0.0000 H   0  0  0  0  0  0  0  0  0  0  0  0
   -1.5000   -3.5260    0.0000 H   0  0  0  0  0  0  0  0  0  0  0  0
    1.5000    1.6702    0.0000 H   0  0  0  0  0  0  0  0  0  0  0  0
   -1.5000    1.6702    0.0000 H   0  0  0  0  0  0  0  0  0  0  0  0
    3.7500   -2.2269    0.0000 H   0  0  0  0  0  0  0  0  0  0  0  0
    3.0000    1.6702    0.0000 H   0  0  0  0  0  0  0  0  0  0  0  0
    5.2500   -2.2269    0.0000 H   0  0  0  0  0  0  0  0  0  0  0  0
    8.2500   -2.2269    0.0000 H   0  0  0  0  0  0  0  0  0  0  0  0
    8.2500    2.9692    0.0000 H   0  0  0  0  0  0  0  0  0  0  0  0
    5.2500    2.9692    0.0000 H   0  0  0  0  0  0  0  0  0  0  0  0
   10.5000    1.6702    0.0000 H   0  0  0  0  0  0  0  0  0  0  0  0
  -10.5000    1.6702    0.0000 H   0  0  0  0  0  0  0  0  0  0  0  0
  1  2  2  0
  1  6  1  0
  1 26  1  0
  2  3  1  0
  2 27  1  0
  3  4  2  0
  3 25  1  0
  4  5  1  0
  4 28  1  0
  5  6  2  0
  5 29  1  0
  6  7  1  0
  7  8  2  0
  7 30  1  0
  8  9  1  0
  8 31  1  0
  9 10  2  0
  9 14  1  0
 10 11  1  0
 10 32  1  0
 11 12  2  0
 11 24  1  0
 12 13  1  0
 12 15  1  0
 13 14  2  0
 13 33  1  0
 14 34  1  0
 15 16  2  0
 15 35  1  0
 16 17  1  0
 16 36  1  0
 17 18  2  0
 17 22  1  0
 18 19  1  0
 18 37  1  0
 19 20  2  0
 19 38  1  0
 20 21  1  0
 20 23  1  0
 21 22  2  0
 21 39  1  0
 22 40  1  0
 23 41  1  0
 25 42  1  0
M  END
$$$$

     RDKit          2D

 47 49  0  0  0  0  0  0  0  0999 V2000
    3.3073    2.1655    0.0000 C   0  0  0  0  0  0  0  0  0  0  0  0
    3.2808    0.6657    0.0000 C   0  0  0  0  0  0  0  0  0  0  0  0
    2.0519   -0.1944    0.0000 C   0  0  0  0  0  0  0  0  0  0  0  0
    2.4902   -1.6290    0.0000 C   0  0  0  0  0  0  0  0  0  0  0  0
    3.9900   -1.6554    0.0000 C   0  0  0  0  0  0  0  0  0  0  0  0
    4.4786   -0.2372    0.0000 N   0  0  0  0  0  0  0  0  0  0  0  0
    4.8501   -2.8843    0.0000 C   0  0  0  0  0  0  0  0  0  0  0  0
    1.5873   -2.8267    0.0000 C   0  0  0  0  0  0  0  0  0  0  0  0
    2.1731   -4.2076    0.0000 O   0  0  0  0  0  0  0  0  0  0  0  0
    0.0985   -2.6437    0.0000 O   0  0  0  0  0  0  0  0  0  0  0  0
   -0.8045   -3.8414    0.0000 C   0  0  0  0  0  0  0  0  0  0  0  0
    0.6337    0.2942    0.0000 C   0  0  0  0  0  0  0  0  0  0  0  0
   -0.4985   -0.6897    0.0000 O   0  0  0  0  0  0  0  0  0  0  0  0
    0.3478    1.7667    0.0000 C   0  0  0  0  0  0  0  0  0  0  0  0
    1.4800    2.7506    0.0000 C   0  0  0  0  0  0  0  0  0  0  0  0
    1.1941    4.2231    0.0000 C   0  0  0  0  0  0  0  0  0  0  0  0
   -0.2241    4.7117    0.0000 C   0  0  0  0  0  0  0  0  0  0  0  0
   -1.3563    3.7278    0.0000 C   0  0  0  0  0  0  0  0  0  0  0  0
   -1.0704    2.2553    0.0000 C   0  0  0  0  0  0  0  0  0  0  0  0
   -2.2026    1.2714    0.0000 C   0  0  0  0  0  0  0  0  0  0  0  0
   -3.3349    0.2876    0.0000 C   0  0  0  0  0  0  0  0  0  0  0  0
   -4.7531    0.7762    0.0000 C   0  0  0  0  0  0  0  0  0  0  0  0
   -5.8853   -0.2077    0.0000 C   0  0  0  0  0  0  0  0  0  0  0  0
   -5.5994   -1.6802    0.0000 C   0  0  0  0  0  0  0  0  0  0  0  0
   -4.1812   -2.1688    0.0000 C   0  0  0  0  0  0  0  0  0  0  0  0
   -3.0489   -1.1849    0.0000 C   0  0  0  0  0  0  0  0  0  0  0  0
    2.5373    2.3720    0.0000 H   0  0  0  0  0  0  0  0  0  0  0  0
    4.8070    2.1390    0.0000 H   0  0  0  0  0  0  0  0  0  0  0  0
    3.3337    3.6653    0.0000 H   0  0  0  0  0  0  0  0  0  0  0  0
    5.9131    0.2011    0.0000 H   0  0  0  0  0  0  0  0  0  0  0  0
    6.0790   -2.0242    0.0000 H   0  0  0  0  0  0  0  0  0  0  0  0
    3.6212   -3.7444    0.0000 H   0  0  0  0  0  0  0  0  0  0  0  0
    5.7103   -4.1132    0.0000 H   0  0  0  0  0  0  0  0  0  0  0  0
   -2.0022   -2.9385    0.0000 H   0  0  0  0  0  0  0  0  0  0  0  0
    0.3933   -4.7444    0.0000 H   0  0  0  0  0  0  0  0  0  0  0  0
   -1.7074   -5.0392    0.0000 H   0  0  0  0  0  0  0  0  0  0  0  0
    2.2742    2.6810    0.0000 H   0  0  0  0  0  0  0  0  0  0  0  0
    2.3263    5.2069    0.0000 H   0  0  0  0  0  0  0  0  0  0  0  0
   -0.5100    6.1842    0.0000 H   0  0  0  0  0  0  0  0  0  0  0  0
   -2.7745    4.2164    0.0000 H   0  0  0  0  0  0  0  0  0  0  0  0
   -1.2188    0.1392    0.0000 H   0  0  0  0  0  0  0  0  0  0  0  0
   -3.1865    2.4037    0.0000 H   0  0  0  0  0  0  0  0  0  0  0  0
   -5.0390    2.2487    0.0000 H   0  0  0  0  0  0  0  0  0  0  0  0
   -7.3035    0.2809    0.0000 H   0  0  0  0  0  0  0  0  0  0  0  0
   -6.7316   -2.6641    0.0000 H   0  0  0  0  0  0  0  0  0  0  0  0
   -3.8953   -3.6413    0.0000 H   0  0  0  0  0  0  0  0  0  0  0  0
   -1.6308   -1.6736    0.0000 H   0  0  0  0  0  0  0  0  0  0  0  0
  1  2  1  0
  1 27  1  0
  1 28  1  0
  1 29  1  0
  2  3  2  0
  2  6  1  0
  3  4  1  0
  3 12  1  0
  4  5  2  0
  4  8  1  0
  5  6  1  0
  5  7  1  0
  6 30  1  0
  7 31  1  0
  7 32  1  0
  7 33  1  0
  8  9  2  0
  8 10  1  0
 10 11  1  0
 11 34  1  0
 11 35  1  0
 11 36  1  0
 12 13  2  0
 12 14  1  0
 14 15  2  0
 14 19  1  0
 15 16  1  0
 15 37  1  0
 16 17  2  0
 16 38  1  0
 17 18  1  0
 17 39  1  0
 18 19  2  0
 18 40  1  0
 19 20  1  0
 20 21  1  0
 20 41  1  0
 20 42  1  0
 21 22  2  0
 21 26  1  0
 22 23  1  0
 22 43  1  0
 23 24  2  0
 23 44  1  0
 24 25  1  0
 24 45  1  0
 25 26  2  0
 25 46  1  0
 26 47  1  0
M  END
$$$$

     RDKit          2D

 33 36  0  0  0  0  0  0  0  0999 V2000
    1.9409   -2.8624    0.0000 C   0  0  0  0  0  0  0  0  0  0  0  0
    1.4410   -1.4481    0.0000 C   0  0  0  0  0  0  0  0  0  0  0  0
    2.4159   -0.3081    0.0000 C   0  0  0  0  0  0  0  0  0  0  0  0
    3.8906   -0.5823    0.0000 C   0  0  0  0  0  0  0  0  0  0  0  0
    4.8654    0.5577    0.0000 C   0  0  0  0  0  0  0  0  0  0  0  0
    4.3656    1.9720    0.0000 N   0  0  0  0  0  0  0  0  0  0  0  0
    2.8908    2.2462    0.0000 C   0  0  0  0  0  0  0  0  0  0  0  0
    1.9160    1.1062    0.0000 C   0  0  0  0  0  0  0  0  0  0  0  0
    0.4413    1.3804    0.0000 C   0  0  0  0  0  0  0  0  0  0  0  0
   -0.5336    0.2404    0.0000 C   0  0  0  0  0  0  0  0  0  0  0  0
   -0.0337   -1.1739    0.0000 C   0  0  0  0  0  0  0  0  0  0  0  0
   -1.2243   -2.0863    0.0000 N   0  0  0  0  0  0  0  0  0  0  0  0
   -2.4600   -1.2360    0.0000 C   0  0  0  0  0  0  0  0  0  0  0  0
   -3.9187   -1.5853    0.0000 C   0  0  0  0  0  0  0  0  0  0  0  0
   -4.9506   -0.4966    0.0000 C   0  0  0  0  0  0  0  0  0  0  0  0
   -4.5237    0.9413    0.0000 C   0  0  0  0  0  0  0  0  0  0  0  0
   -3.0650    1.2906    0.0000 C   0  0  0  0  0  0  0  0  0  0  0  0
   -2.0331    0.2020    0.0000 C   0  0  0  0  0  0  0  0  0  0  0  0
   -0.0586    2.7946    0.0000 C   0  0  0  0  0  0  0  0  0  0  0  0
    0.5266   -3.3623    0.0000 H   0  0  0  0  0  0  0  0  0  0  0  0
    3.3551   -2.3625    0.0000 H   0  0  0  0  0  0  0  0  0  0  0  0
    2.4408   -4.2766    0.0000 H   0  0  0  0  0  0  0  0  0  0  0  0
    4.3905   -1.9966    0.0000 H   0  0  0  0  0  0  0  0  0  0  0  0
    6.3401    0.2835    0.0000 H   0  0  0  0  0  0  0  0  0  0  0  0
    2.3910    3.6605    0.0000 H   0  0  0  0  0  0  0  0  0  0  0  0
   -1.1859   -3.5858    0.0000 H   0  0  0  0  0  0  0  0  0  0  0  0
   -4.3456   -3.0233    0.0000 H   0  0  0  0  0  0  0  0  0  0  0  0
   -6.4094   -0.8459    0.0000 H   0  0  0  0  0  0  0  0  0  0  0  0
   -5.5556    2.0300    0.0000 H   0  0  0  0  0  0  0  0  0  0  0  0
   -2.6381    2.7286    0.0000 H   0  0  0  0  0  0  0  0  0  0  0  0
    1.3557    3.2945    0.0000 H   0  0  0  0  0  0  0  0  0  0  0  0
   -1.4729    2.2948    0.0000 H   0  0  0  0  0  0  0  0  0  0  0  0
   -0.5585    4.2089    0.0000 H   0  0  0  0  0  0  0  0  0  0  0  0
  1  2  1  0
  1 20  1  0
  1 21  1  0
  1 22  1  0
  2  3  2  0
  2 11  1  0
  3  4  1  0
  3  8  1  0
  4  5  2  0
  4 23  1  0
  5  6  1  0
  5 24  1  0
  6  7  2  0
  7  8  1  0
  7 25  1  0
  8  9  2  0
  9 10  1  0
  9 19  1  0
 10 11  2  0
 10 18  1  0
 11 12  1  0
 12 13  1  0
 12 26  1  0
 13 14  2  0
 13 18  1  0
 14 15  1  0
 14 27  1  0
 15 16  2  0
 15 28  1  0
 16 17  1  0
 16 29  1  0
 17 18  2  0
 17 30  1  0
 19 31  1  0
 19 32  1  0
 19 33  1  0
M  END
$$$$

     RDKit          2D

 40 41  0  0  0  0  0  0  0  0999 V2000
   -3.1042    1.7720    0.0000 C   0  0  0  0  0  0  0  0  0  0  0  0
   -4.4551    1.1202    0.0000 C   0  0  0  0  0  0  0  0  0  0  0  0
   -4.7879   -0.3424    0.0000 N   0  0  0  0  0  0  0  0  0  0  0  0
   -3.8518   -1.5145    0.0000 C   0  0  0  0  0  0  0  0  0  0  0  0
   -2.3518   -1.5134    0.0000 C   0  0  0  0  0  0  0  0  0  0  0  0
   -1.4174   -0.3400    0.0000 N   0  0  0  0  0  0  0  0  0  0  0  0
   -1.7522    1.1222    0.0000 C   0  0  0  0  0  0  0  0  0  0  0  0
    0.0452   -0.6727    0.0000 S   0  0  0  0  0  0  0  0  0  0  0  0
   -0.1068   -2.1650    0.0000 O   0  0  0  0  0  0  0  0  0  0  0  0
    0.5538    0.7384    0.0000 O   0  0  0  0  0  0  0  0  0  0  0  0
    1.5078   -1.0055    0.0000 C   0  0  0  0  0  0  0  0  0  0  0  0
    1.9510   -2.4385    0.0000 C   0  0  0  0  0  0  0  0  0  0  0  0
    3.4136   -2.7713    0.0000 C   0  0  0  0  0  0  0  0  0  0  0  0
    4.4331   -1.6710    0.0000 C   0  0  0  0  0  0  0  0  0  0  0  0
    3.9899   -0.2379    0.0000 C   0  0  0  0  0  0  0  0  0  0  0  0
    2.5273    0.0948    0.0000 C   0  0  0  0  0  0  0  0  0  0  0  0
    2.0842    1.5279    0.0000 C   0  0  0  0  0  0  0  0  0  0  0  0
    3.1036    2.6282    0.0000 C   0  0  0  0  0  0  0  0  0  0  0  0
    4.5663    2.2954    0.0000 C   0  0  0  0  0  0  0  0  0  0  0  0
    5.0094    0.8624    0.0000 C   0  0  0  0  0  0  0  0  0  0  0  0
    6.4720    0.5296    0.0000 Cl  0  0  0  0  0  0  0  0  0  0  0  0
   -0.7500    5.0612    0.0000 Cl  0  0  0  0  0  0  0  0  0  0  0  0
   -3.8904    3.0495    0.0000 H   0  0  0  0  0  0  0  0  0  0  0  0
   -2.3198    3.0506    0.0000 H   0  0  0  0  0  0  0  0  0  0  0  0
   -5.9551    1.1192    0.0000 H   0  0  0  0  0  0  0  0  0  0  0  0
   -4.9657    2.5307    0.0000 H   0  0  0  0  0  0  0  0  0  0  0  0
   -6.2500   -0.6772    0.0000 H   0  0  0  0  0  0  0  0  0  0  0  0
   -3.6977   -3.0065    0.0000 H   0  0  0  0  0  0  0  0  0  0  0  0
   -5.2028   -2.1663    0.0000 H   0  0  0  0  0  0  0  0  0  0  0  0
   -1.0892   -2.3232    0.0000 H   0  0  0  0  0  0  0  0  0  0  0  0
   -2.5038   -3.0057    0.0000 H   0  0  0  0  0  0  0  0  0  0  0  0
   -1.2437    2.5333    0.0000 H   0  0  0  0  0  0  0  0  0  0  0  0
   -0.2636    1.3061    0.0000 H   0  0  0  0  0  0  0  0  0  0  0  0
    0.9315   -3.5388    0.0000 H   0  0  0  0  0  0  0  0  0  0  0  0
    3.8568   -4.2043    0.0000 H   0  0  0  0  0  0  0  0  0  0  0  0
    5.8957   -2.0037    0.0000 H   0  0  0  0  0  0  0  0  0  0  0  0
    0.6215    1.8606    0.0000 H   0  0  0  0  0  0  0  0  0  0  0  0
    2.6605    4.0612    0.0000 H   0  0  0  0  0  0  0  0  0  0  0  0
    5.5857    3.3957    0.0000 H   0  0  0  0  0  0  0  0  0  0  0  0
    0.7500    5.0612    0.0000 H   0  0  0  0  0  0  0  0  0  0  0  0
  1  2  1  0
  1  7  1  0
  1 23  1  0
  1 24  1  0
  2  3  1  0
  2 25  1  0
  2 26  1  0
  3  4  1  0
  3 27  1  0
  4  5  1  0
  4 28  1  0
  4 29  1  0
  5  6  1  0
  5 30  1  0
  5 31  1  0
  6  7  1  0
  6  8  1  0
  7 32  1  0
  7 33  1  0
  8  9  2  0
  8 10  2  0
  8 11  1  0
 11 12  2  0
 11 16  1  0
 12 13  1  0
 12 34  1  0
 13 14  2  0
 13 35  1  0
 14 15  1  0
 14 36  1  0
 15 16  2  0
 15 20  1  0
 16 17  1  0
 17 18  2  0
 17 37  1  0
 18 19  1  0
 18 38  1  0
 19 20  2  0
 19 39  1  0
 20 21  1  0
 22 40  1  0
M  END
$$$$

     RDKit          2D

 47 49  0  0  0  0  0  0  0  0999 V2000
   -5.8006    1.7997    0.0000 C   0  0  0  0  0  0  0  0  0  0  0  0
   -5.1060    0.4702    0.0000 C   0  0  0  0  0  0  0  0  0  0  0  0
   -4.4113   -0.8592    0.0000 S   0  0  0  0  0  0  0  0  0  0  0  0
   -3.0818   -0.1646    0.0000 O   0  0  0  0  0  0  0  0  0  0  0  0
   -5.7408   -1.5539    0.0000 O   0  0  0  0  0  0  0  0  0  0  0  0
   -3.7167   -2.1887    0.0000 N   0  0  0  0  0  0  0  0  0  0  0  0
   -2.2180   -2.2518    0.0000 C   0  0  0  0  0  0  0  0  0  0  0  0
   -1.5233   -3.5813    0.0000 C   0  0  0  0  0  0  0  0  0  0  0  0
   -0.0247   -3.6444    0.0000 C   0  0  0  0  0  0  0  0  0  0  0  0
    0.7794   -2.3781    0.0000 C   0  0  0  0  0  0  0  0  0  0  0  0
    0.0847   -1.0486    0.0000 C   0  0  0  0  0  0  0  0  0  0  0  0
   -1.4140   -0.9855    0.0000 C   0  0  0  0  0  0  0  0  0  0  0  0
    0.8887    0.2177    0.0000 C   0  0  0  0  0  0  0  0  0  0  0  0
    2.3874    0.1545    0.0000 C   0  0  0  0  0  0  0  0  0  0  0  0
    3.0820   -1.1749    0.0000 C   0  0  0  0  0  0  0  0  0  0  0  0
    4.5807   -1.2381    0.0000 C   0  0  0  0  0  0  0  0  0  0  0  0
    5.3847    0.0282    0.0000 C   0  0  0  0  0  0  0  0  0  0  0  0
    4.6901    1.3577    0.0000 C   0  0  0  0  0  0  0  0  0  0  0  0
    3.1914    1.4208    0.0000 C   0  0  0  0  0  0  0  0  0  0  0  0
    0.1941    1.5471    0.0000 C   0  0  0  0  0  0  0  0  0  0  0  0
   -1.2898    1.7666    0.0000 C   0  0  0  0  0  0  0  0  0  0  0  0
   -1.5396    3.2456    0.0000 N   0  0  0  0  0  0  0  0  0  0  0  0
   -0.2102    3.9403    0.0000 C   0  0  0  0  0  0  0  0  0  0  0  0
    0.8613    2.8905    0.0000 N   0  0  0  0  0  0  0  0  0  0  0  0
   -7.1301    1.1050    0.0000 H   0  0  0  0  0  0  0  0  0  0  0  0
   -4.4712    2.4943    0.0000 H   0  0  0  0  0  0  0  0  0  0  0  0
   -6.4953    3.1291    0.0000 H   0  0  0  0  0  0  0  0  0  0  0  0
   -6.4354   -0.2244    0.0000 H   0  0  0  0  0  0  0  0  0  0  0  0
   -3.7765    1.1649    0.0000 H   0  0  0  0  0  0  0  0  0  0  0  0
   -4.5207   -3.4550    0.0000 H   0  0  0  0  0  0  0  0  0  0  0  0
   -2.3273   -4.8476    0.0000 H   0  0  0  0  0  0  0  0  0  0  0  0
    0.6700   -4.9739    0.0000 H   0  0  0  0  0  0  0  0  0  0  0  0
    2.2780   -2.4412    0.0000 H   0  0  0  0  0  0  0  0  0  0  0  0
   -2.1037    0.0147    0.0000 H   0  0  0  0  0  0  0  0  0  0  0  0
    3.2801   -2.6618    0.0000 H   0  0  0  0  0  0  0  0  0  0  0  0
    1.6522   -1.6282    0.0000 H   0  0  0  0  0  0  0  0  0  0  0  0
    5.9674   -1.8100    0.0000 H   0  0  0  0  0  0  0  0  0  0  0  0
    4.2583   -2.7030    0.0000 H   0  0  0  0  0  0  0  0  0  0  0  0
    6.5734    0.9432    0.0000 H   0  0  0  0  0  0  0  0  0  0  0  0
    6.4922   -0.9835    0.0000 H   0  0  0  0  0  0  0  0  0  0  0  0
    4.4920    2.8446    0.0000 H   0  0  0  0  0  0  0  0  0  0  0  0
    6.1200    1.8109    0.0000 H   0  0  0  0  0  0  0  0  0  0  0  0
    1.8047    1.9928    0.0000 H   0  0  0  0  0  0  0  0  0  0  0  0
    3.5138    2.8858    0.0000 H   0  0  0  0  0  0  0  0  0  0  0  0
   -2.2395    1.0088    0.0000 H   0  0  0  0  0  0  0  0  0  0  0  0
    0.0093    5.4241    0.0000 H   0  0  0  0  0  0  0  0  0  0  0  0
    2.3404    3.1404    0.0000 H   0  0  0  0  0  0  0  0  0  0  0  0
  1  2  1  0
  1 25  1  0
  1 26  1  0
  1 27  1  0
  2  3  1  0
  2 28  1  0
  2 29  1  0
  3  4  2  0
  3  5  2  0
  3  6  1  0
  6  7  1  0
  6 30  1  0
  7  8  2  0
  7 12  1  0
  8  9  1  0
  8 31  1  0
  9 10  2  0
  9 32  1  0
 10 11  1  0
 10 33  1  0
 11 12  2  0
 11 13  1  0
 12 34  1  0
 13 14  2  0
 13 20  1  0
 14 15  1  0
 14 19  1  0
 15 16  1  0
 15 35  1  0
 15 36  1  0
 16 17  1  0
 16 37  1  0
 16 38  1  0
 17 18  1  0
 17 39  1  0
 17 40  1  0
 18 19  1  0
 18 41  1  0
 18 42  1  0
 19 43  1  0
 19 44  1  0
 20 21  2  0
 20 24  1  0
 21 22  1  0
 21 45  1  0
 22 23  2  0
 23 24  1  0
 23 46  1  0
 24 47  1  0
M  END
$$$$

     RDKit          2D

 55 56  0  0  0  0  0  0  0  0999 V2000
    8.5955   -1.1691    0.0000 C   0  0  0  0  0  0  0  0  0  0  0  0
    8.2439    0.2891    0.0000 O   0  0  0  0  0  0  0  0  0  0  0  0
    6.8053    0.7138    0.0000 C   0  0  0  0  0  0  0  0  0  0  0  0
    5.7182   -0.3198    0.0000 C   0  0  0  0  0  0  0  0  0  0  0  0
    4.2796    0.1048    0.0000 C   0  0  0  0  0  0  0  0  0  0  0  0
    3.9280    1.5630    0.0000 C   0  0  0  0  0  0  0  0  0  0  0  0
    5.0151    2.5966    0.0000 C   0  0  0  0  0  0  0  0  0  0  0  0
    6.4537    2.1720    0.0000 C   0  0  0  0  0  0  0  0  0  0  0  0
    2.4894    1.9877    0.0000 C   0  0  0  0  0  0  0  0  0  0  0  0
    1.0507    2.4123    0.0000 C   0  0  0  0  0  0  0  0  0  0  0  0
   -0.3879    2.8369    0.0000 C   0  0  0  0  0  0  0  0  0  0  0  0
   -1.8265    3.2616    0.0000 O   0  0  0  0  0  0  0  0  0  0  0  0
   -2.9136    2.2280    0.0000 C   0  0  0  0  0  0  0  0  0  0  0  0
   -4.3522    2.6526    0.0000 C   0  0  0  0  0  0  0  0  0  0  0  0
   -5.4393    1.6190    0.0000 C   0  0  0  0  0  0  0  0  0  0  0  0
   -5.0877    0.1608    0.0000 C   0  0  0  0  0  0  0  0  0  0  0  0
   -3.6491   -0.2638    0.0000 C   0  0  0  0  0  0  0  0  0  0  0  0
   -2.5620    0.7698    0.0000 C   0  0  0  0  0  0  0  0  0  0  0  0
   -3.2975   -1.7220    0.0000 C   0  0  0  0  0  0  0  0  0  0  0  0
   -2.9459   -3.1802    0.0000 C   0  0  0  0  0  0  0  0  0  0  0  0
   -2.5944   -4.6385    0.0000 N   0  0  0  0  0  0  0  0  0  0  0  0
   -1.2080   -5.2111    0.0000 C   0  0  0  0  0  0  0  0  0  0  0  0
   -1.3242   -6.7066    0.0000 C   0  0  0  0  0  0  0  0  0  0  0  0
   -2.7824   -7.0582    0.0000 N   0  0  0  0  0  0  0  0  0  0  0  0
   -3.5674   -5.7800    0.0000 C   0  0  0  0  0  0  0  0  0  0  0  0
   -4.7038    4.1108    0.0000 O   0  0  0  0  0  0  0  0  0  0  0  0
   -6.1425    4.5355    0.0000 C   0  0  0  0  0  0  0  0  0  0  0  0
   -0.7500    6.9741    0.0000 Cl  0  0  0  0  0  0  0  0  0  0  0  0
   10.0537   -0.8175    0.0000 H   0  0  0  0  0  0  0  0  0  0  0  0
    7.1373   -1.5207    0.0000 H   0  0  0  0  0  0  0  0  0  0  0  0
    8.9471   -2.6273    0.0000 H   0  0  0  0  0  0  0  0  0  0  0  0
    6.0698   -1.7780    0.0000 H   0  0  0  0  0  0  0  0  0  0  0  0
    3.1925   -0.9288    0.0000 H   0  0  0  0  0  0  0  0  0  0  0  0
    4.6635    4.0548    0.0000 H   0  0  0  0  0  0  0  0  0  0  0  0
    7.5408    3.2056    0.0000 H   0  0  0  0  0  0  0  0  0  0  0  0
    2.9140    3.4263    0.0000 H   0  0  0  0  0  0  0  0  0  0  0  0
    2.0648    0.5490    0.0000 H   0  0  0  0  0  0  0  0  0  0  0  0
    1.4754    3.8509    0.0000 H   0  0  0  0  0  0  0  0  0  0  0  0
    0.6261    0.9737    0.0000 H   0  0  0  0  0  0  0  0  0  0  0  0
   -0.8125    1.3983    0.0000 H   0  0  0  0  0  0  0  0  0  0  0  0
    0.0367    4.2756    0.0000 H   0  0  0  0  0  0  0  0  0  0  0  0
   -6.8779    2.0437    0.0000 H   0  0  0  0  0  0  0  0  0  0  0  0
   -6.1748   -0.8728    0.0000 H   0  0  0  0  0  0  0  0  0  0  0  0
   -1.1234    0.3451    0.0000 H   0  0  0  0  0  0  0  0  0  0  0  0
   -4.7557   -2.0736    0.0000 H   0  0  0  0  0  0  0  0  0  0  0  0
   -1.8393   -1.3704    0.0000 H   0  0  0  0  0  0  0  0  0  0  0  0
   -1.4877   -2.8287    0.0000 H   0  0  0  0  0  0  0  0  0  0  0  0
   -4.4041   -3.5318    0.0000 H   0  0  0  0  0  0  0  0  0  0  0  0
    0.0702   -4.4262    0.0000 H   0  0  0  0  0  0  0  0  0  0  0  0
   -0.1827   -7.6797    0.0000 H   0  0  0  0  0  0  0  0  0  0  0  0
   -5.0629   -5.6638    0.0000 H   0  0  0  0  0  0  0  0  0  0  0  0
   -5.7178    5.9741    0.0000 H   0  0  0  0  0  0  0  0  0  0  0  0
   -6.5671    3.0968    0.0000 H   0  0  0  0  0  0  0  0  0  0  0  0
   -7.5811    4.9601    0.0000 H   0  0  0  0  0  0  0  0  0  0  0  0
    0.7500    6.9741    0.0000 H   0  0  0  0  0  0  0  0  0  0  0  0
  1  2  1  0
  1 29  1  0
  1 30  1  0
  1 31  1  0
  2  3  1  0
  3  4  2  0
  3  8  1  0
  4  5  1  0
  4 32  1  0
  5  6  2  0
  5 33  1  0
  6  7  1  0
  6  9  1  0
  7  8  2  0
  7 34  1  0
  8 35  1  0
  9 10  1  0
  9 36  1  0
  9 37  1  0
 10 11  1  0
 10 38  1  0
 10 39  1  0
 11 12  1  0
 11 40  1  0
 11 41  1  0
 12 13  1  0
 13 14  2  0
 13 18  1  0
 14 15  1  0
 14 26  1  0
 15 16  2  0
 15 42  1  0
 16 17  1  0
 16 43  1  0
 17 18  2  0
 17 19  1  0
 18 44  1  0
 19 20  1  0
 19 45  1  0
 19 46  1  0
 20 21  1  0
 20 47  1  0
 20 48  1  0
 21 22  1  0
 21 25  1  0
 22 23  2  0
 22 49  1  0
 23 24  1  0
 23 50  1  0
 24 25  2  0
 25 51  1  0
 26 27  1  0
 27 52  1  0
 27 53  1  0
 27 54  1  0
 28 55  1  0
M  END
$$$$

     RDKit          2D

 69 71  0  0  0  0  0  0  0  0999 V2000
   10.0637   -0.8619    0.0000 C   0  0  0  0  0  0  0  0  0  0  0  0
    8.5751   -0.6774    0.0000 C   0  0  0  0  0  0  0  0  0  0  0  0
    7.0865   -0.4929    0.0000 C   0  0  0  0  0  0  0  0  0  0  0  0
    5.5979   -0.3084    0.0000 C   0  0  0  0  0  0  0  0  0  0  0  0
    4.1093   -0.1239    0.0000 C   0  0  0  0  0  0  0  0  0  0  0  0
    2.6207    0.0606    0.0000 C   0  0  0  0  0  0  0  0  0  0  0  0
    1.1321    0.2451    0.0000 N   0  0  0  0  0  0  0  0  0  0  0  0
    0.2280   -0.9519    0.0000 C   0  0  0  0  0  0  0  0  0  0  0  0
   -0.6761   -2.1488    0.0000 C   0  0  0  0  0  0  0  0  0  0  0  0
   -1.5802   -3.3457    0.0000 C   0  0  0  0  0  0  0  0  0  0  0  0
   -2.4843   -4.5426    0.0000 C   0  0  0  0  0  0  0  0  0  0  0  0
   -3.3884   -5.7395    0.0000 C   0  0  0  0  0  0  0  0  0  0  0  0
   -4.2925   -6.9365    0.0000 C   0  0  0  0  0  0  0  0  0  0  0  0
    0.5475    1.6265    0.0000 C   0  0  0  0  0  0  0  0  0  0  0  0
    1.4516    2.8234    0.0000 O   0  0  0  0  0  0  0  0  0  0  0  0
   -0.9411    1.8110    0.0000 C   0  0  0  0  0  0  0  0  0  0  0  0
   -2.4297    1.9955    0.0000 C   0  0  0  0  0  0  0  0  0  0  0  0
   -3.1554    3.3083    0.0000 C   0  0  0  0  0  0  0  0  0  0  0  0
   -4.6282    3.0237    0.0000 N   0  0  0  0  0  0  0  0  0  0  0  0
   -4.8127    1.5351    0.0000 C   0  0  0  0  0  0  0  0  0  0  0  0
   -6.0424    0.6762    0.0000 C   0  0  0  0  0  0  0  0  0  0  0  0
   -5.9134   -0.8183    0.0000 C   0  0  0  0  0  0  0  0  0  0  0  0
   -4.5546   -1.4538    0.0000 C   0  0  0  0  0  0  0  0  0  0  0  0
   -3.3249   -0.5948    0.0000 C   0  0  0  0  0  0  0  0  0  0  0  0
   -3.4539    0.8996    0.0000 C   0  0  0  0  0  0  0  0  0  0  0  0
   -2.5199    4.6670    0.0000 C   0  0  0  0  0  0  0  0  0  0  0  0
   -1.0255    4.7960    0.0000 C   0  0  0  0  0  0  0  0  0  0  0  0
   -0.3900    6.1548    0.0000 C   0  0  0  0  0  0  0  0  0  0  0  0
   -1.2490    7.3845    0.0000 C   0  0  0  0  0  0  0  0  0  0  0  0
   -2.7434    7.2554    0.0000 C   0  0  0  0  0  0  0  0  0  0  0  0
   -3.3789    5.8967    0.0000 C   0  0  0  0  0  0  0  0  0  0  0  0
   -0.6135    8.7432    0.0000 F   0  0  0  0  0  0  0  0  0  0  0  0
   10.2482    0.6267    0.0000 H   0  0  0  0  0  0  0  0  0  0  0  0
    9.8792   -2.3506    0.0000 H   0  0  0  0  0  0  0  0  0  0  0  0
   11.5523   -1.0465    0.0000 H   0  0  0  0  0  0  0  0  0  0  0  0
    8.3906   -2.1661    0.0000 H   0  0  0  0  0  0  0  0  0  0  0  0
    8.7596    0.8112    0.0000 H   0  0  0  0  0  0  0  0  0  0  0  0
    7.2710    0.9957    0.0000 H   0  0  0  0  0  0  0  0  0  0  0  0
    6.9020   -1.9816    0.0000 H   0  0  0  0  0  0  0  0  0  0  0  0
    5.4134   -1.7970    0.0000 H   0  0  0  0  0  0  0  0  0  0  0  0
    5.7824    1.1802    0.0000 H   0  0  0  0  0  0  0  0  0  0  0  0
    4.2938    1.3647    0.0000 H   0  0  0  0  0  0  0  0  0  0  0  0
    3.9248   -1.6125    0.0000 H   0  0  0  0  0  0  0  0  0  0  0  0
    2.4362   -1.4280    0.0000 H   0  0  0  0  0  0  0  0  0  0  0  0
    2.8052    1.5492    0.0000 H   0  0  0  0  0  0  0  0  0  0  0  0
    1.4249   -1.8559    0.0000 H   0  0  0  0  0  0  0  0  0  0  0  0
   -0.8236   -0.3432    0.0000 H   0  0  0  0  0  0  0  0  0  0  0  0
    0.5208   -3.0529    0.0000 H   0  0  0  0  0  0  0  0  0  0  0  0
   -1.4618   -1.3883    0.0000 H   0  0  0  0  0  0  0  0  0  0  0  0
   -0.3833   -4.2498    0.0000 H   0  0  0  0  0  0  0  0  0  0  0  0
   -2.7771   -2.4416    0.0000 H   0  0  0  0  0  0  0  0  0  0  0  0
   -1.2874   -5.4467    0.0000 H   0  0  0  0  0  0  0  0  0  0  0  0
   -3.6812   -3.6385    0.0000 H   0  0  0  0  0  0  0  0  0  0  0  0
   -4.5853   -4.8355    0.0000 H   0  0  0  0  0  0  0  0  0  0  0  0
   -2.1915   -6.6436    0.0000 H   0  0  0  0  0  0  0  0  0  0  0  0
   -3.0956   -7.8406    0.0000 H   0  0  0  0  0  0  0  0  0  0  0  0
   -5.4894   -6.0324    0.0000 H   0  0  0  0  0  0  0  0  0  0  0  0
   -5.1966   -8.1334    0.0000 H   0  0  0  0  0  0  0  0  0  0  0  0
   -1.2364    0.6324    0.0000 H   0  0  0  0  0  0  0  0  0  0  0  0
   -0.6458    2.9896    0.0000 H   0  0  0  0  0  0  0  0  0  0  0  0
   -5.7240    4.0480    0.0000 H   0  0  0  0  0  0  0  0  0  0  0  0
   -7.4011    1.3116    0.0000 H   0  0  0  0  0  0  0  0  0  0  0  0
   -7.1431   -1.6773    0.0000 H   0  0  0  0  0  0  0  0  0  0  0  0
   -4.4256   -2.9482    0.0000 H   0  0  0  0  0  0  0  0  0  0  0  0
   -2.2853   -0.9339    0.0000 H   0  0  0  0  0  0  0  0  0  0  0  0
   -0.2135    3.8922    0.0000 H   0  0  0  0  0  0  0  0  0  0  0  0
    1.1044    6.2838    0.0000 H   0  0  0  0  0  0  0  0  0  0  0  0
   -3.6024    8.4851    0.0000 H   0  0  0  0  0  0  0  0  0  0  0  0
   -4.8733    5.7677    0.0000 H   0  0  0  0  0  0  0  0  0  0  0  0
  1  2  1  0
  1 33  1  0
  1 34  1  0
  1 35  1  0
  2  3  1  0
  2 36  1  0
  2 37  1  0
  3  4  1  0
  3 38  1  0
  3 39  1  0
  4  5  1  0
  4 40  1  0
  4 41  1  0
  5  6  1  0
  5 42  1  0
  5 43  1  0
  6  7  1  0
  6 44  1  0
  6 45  1  0
  7  8  1  0
  7 14  1  0
  8  9  1  0
  8 46  1  0
  8 47  1  0
  9 10  1  0
  9 48  1  0
  9 49  1  0
 10 11  1  0
 10 50  1  0
 10 51  1  0
 11 12  1  0
 11 52  1  0
 11 53  1  0
 12 13  1  0
 12 54  1  0
 12 55  1  0
 13 56  1  0
 13 57  1  0
 13 58  1  0
 14 15  2  0
 14 16  1  0
 16 17  1  0
 16 59  1  0
 16 60  1  0
 17 18  2  0
 17 25  1  0
 18 19  1  0
 18 26  1  0
 19 20  1  0
 19 61  1  0
 20 21  1  0
 20 25  2  0
 21 22  2  0
 21 62  1  0
 22 23  1  0
 22 63  1  0
 23 24  2  0
 23 64  1  0
 24 25  1  0
 24 65  1  0
 26 27  2  0
 26 31  1  0
 27 28  1  0
 27 66  1  0
 28 29  2  0
 28 67  1  0
 29 30  1  0
 29 32  1  0
 30 31  2  0
 30 68  1  0
 31 69  1  0
M  END
$$$$

     RDKit          2D

 44 45  0  0  0  0  0  0  0  0999 V2000
   -2.0214   -2.4723    0.0000 C   0  0  0  0  0  0  0  0  0  0  0  0
   -3.1264   -3.4867    0.0000 C   0  0  0  0  0  0  0  0  0  0  0  0
   -4.5574   -3.0369    0.0000 C   0  0  0  0  0  0  0  0  0  0  0  0
   -4.8833   -1.5728    0.0000 C   0  0  0  0  0  0  0  0  0  0  0  0
   -3.7783   -0.5584    0.0000 C   0  0  0  0  0  0  0  0  0  0  0  0
   -2.3474   -1.0082    0.0000 C   0  0  0  0  0  0  0  0  0  0  0  0
   -1.2424    0.0062    0.0000 C   0  0  0  0  0  0  0  0  0  0  0  0
   -2.2567    1.1112    0.0000 C   0  0  0  0  0  0  0  0  0  0  0  0
   -3.7209    0.7852    0.0000 C   0  0  0  0  0  0  0  0  0  0  0  0
   -4.7353    1.8903    0.0000 C   0  0  0  0  0  0  0  0  0  0  0  0
   -4.2855    3.3212    0.0000 C   0  0  0  0  0  0  0  0  0  0  0  0
   -2.8213    3.6472    0.0000 C   0  0  0  0  0  0  0  0  0  0  0  0
   -1.8070    2.5422    0.0000 C   0  0  0  0  0  0  0  0  0  0  0  0
   -5.2999    4.4262    0.0000 F   0  0  0  0  0  0  0  0  0  0  0  0
   -0.2280   -1.0988    0.0000 O   0  0  0  0  0  0  0  0  0  0  0  0
    1.2362   -0.7728    0.0000 C   0  0  0  0  0  0  0  0  0  0  0  0
    2.7003   -0.4469    0.0000 C   0  0  0  0  0  0  0  0  0  0  0  0
    4.1645   -0.1209    0.0000 C   0  0  0  0  0  0  0  0  0  0  0  0
    5.6286    0.2051    0.0000 C   0  0  0  0  0  0  0  0  0  0  0  0
    6.2255    1.5812    0.0000 C   0  0  0  0  0  0  0  0  0  0  0  0
    7.7187    1.4388    0.0000 N   0  0  0  0  0  0  0  0  0  0  0  0
    8.0447   -0.0254    0.0000 C   0  0  0  0  0  0  0  0  0  0  0  0
    6.7530   -0.7878    0.0000 N   0  0  0  0  0  0  0  0  0  0  0  0
   -5.6624   -4.0513    0.0000 F   0  0  0  0  0  0  0  0  0  0  0  0
   -0.7500    6.0782    0.0000 Cl  0  0  0  0  0  0  0  0  0  0  0  0
   -0.5904   -2.9221    0.0000 H   0  0  0  0  0  0  0  0  0  0  0  0
   -2.8004   -4.9508    0.0000 H   0  0  0  0  0  0  0  0  0  0  0  0
   -6.3143   -1.1230    0.0000 H   0  0  0  0  0  0  0  0  0  0  0  0
   -4.1347    0.1547    0.0000 H   0  0  0  0  0  0  0  0  0  0  0  0
   -0.1373    1.0206    0.0000 H   0  0  0  0  0  0  0  0  0  0  0  0
   -4.5036   -0.4944    0.0000 H   0  0  0  0  0  0  0  0  0  0  0  0
   -6.1994    1.5643    0.0000 H   0  0  0  0  0  0  0  0  0  0  0  0
   -2.3716    5.0782    0.0000 H   0  0  0  0  0  0  0  0  0  0  0  0
   -0.3428    2.8682    0.0000 H   0  0  0  0  0  0  0  0  0  0  0  0
    1.5621   -2.2370    0.0000 H   0  0  0  0  0  0  0  0  0  0  0  0
    0.9102    0.6913    0.0000 H   0  0  0  0  0  0  0  0  0  0  0  0
    2.3744    1.0173    0.0000 H   0  0  0  0  0  0  0  0  0  0  0  0
    3.0263   -1.9110    0.0000 H   0  0  0  0  0  0  0  0  0  0  0  0
    3.8385    1.3433    0.0000 H   0  0  0  0  0  0  0  0  0  0  0  0
    4.4905   -1.5850    0.0000 H   0  0  0  0  0  0  0  0  0  0  0  0
    5.4631    2.8730    0.0000 H   0  0  0  0  0  0  0  0  0  0  0  0
    9.4208   -0.6223    0.0000 H   0  0  0  0  0  0  0  0  0  0  0  0
    6.6105   -2.2811    0.0000 H   0  0  0  0  0  0  0  0  0  0  0  0
    0.7500    6.0782    0.0000 H   0  0  0  0  0  0  0  0  0  0  0  0
  1  2  2  0
  1  6  1  0
  1 26  1  0
  2  3  1  0
  2 27  1  0
  3  4  2  0
  3 24  1  0
  4  5  1  0
  4 28  1  0
  5  6  2  0
  5 29  1  0
  6  7  1  0
  7  8  1  0
  7 15  1  0
  7 30  1  0
  8  9  2  0
  8 13  1  0
  9 10  1  0
  9 31  1  0
 10 11  2  0
 10 32  1  0
 11 12  1  0
 11 14  1  0
 12 13  2  0
 12 33  1  0
 13 34  1  0
 15 16  1  0
 16 17  1  0
 16 35  1  0
 16 36  1  0
 17 18  1  0
 17 37  1  0
 17 38  1  0
 18 19  1  0
 18 39  1  0
 18 40  1  0
 19 20  2  0
 19 23  1  0
 20 21  1  0
 20 41  1  0
 21 22  2  0
 22 23  1  0
 22 42  1  0
 23 43  1  0
 25 44  1  0
M  END
$$$$

     RDKit          2D

 40 43  0  0  0  0  0  0  0  0999 V2000
    6.0000    1.3443    0.0000 C   0  0  0  0  0  0  0  0  0  0  0  0
    5.2500    0.0453    0.0000 C   0  0  0  0  0  0  0  0  0  0  0  0
    3.7500    0.0453    0.0000 C   0  0  0  0  0  0  0  0  0  0  0  0
    3.0000    1.3443    0.0000 C   0  0  0  0  0  0  0  0  0  0  0  0
    3.7500    2.6434    0.0000 C   0  0  0  0  0  0  0  0  0  0  0  0
    5.2500    2.6434    0.0000 C   0  0  0  0  0  0  0  0  0  0  0  0
    1.5000    1.3443    0.0000 N   0  0  0  0  0  0  0  0  0  0  0  0
    0.7500    0.0453    0.0000 C   0  0  0  0  0  0  0  0  0  0  0  0
   -0.7500    0.0453    0.0000 C   0  0  0  0  0  0  0  0  0  0  0  0
   -1.5000   -1.2538    0.0000 C   0  0  0  0  0  0  0  0  0  0  0  0
   -0.7500   -2.5528    0.0000 C   0  0  0  0  0  0  0  0  0  0  0  0
    0.7500   -2.5528    0.0000 C   0  0  0  0  0  0  0  0  0  0  0  0
    1.5000   -1.2538    0.0000 C   0  0  0  0  0  0  0  0  0  0  0  0
    1.2135   -3.9794    0.0000 C   0  0  0  0  0  0  0  0  0  0  0  0
    2.6401   -4.4429    0.0000 O   0  0  0  0  0  0  0  0  0  0  0  0
    0.0000   -4.8611    0.0000 N   0  0  0  0  0  0  0  0  0  0  0  0
   -1.2135   -3.9794    0.0000 C   0  0  0  0  0  0  0  0  0  0  0  0
   -2.6401   -4.4429    0.0000 O   0  0  0  0  0  0  0  0  0  0  0  0
   -1.5000    1.3443    0.0000 N   0  0  0  0  0  0  0  0  0  0  0  0
   -3.0000    1.3443    0.0000 C   0  0  0  0  0  0  0  0  0  0  0  0
   -3.7500    2.6434    0.0000 C   0  0  0  0  0  0  0  0  0  0  0  0
   -5.2500    2.6434    0.0000 C   0  0  0  0  0  0  0  0  0  0  0  0
   -6.0000    1.3443    0.0000 C   0  0  0  0  0  0  0  0  0  0  0  0
   -5.2500    0.0453    0.0000 C   0  0  0  0  0  0  0  0  0  0  0  0
   -3.7500    0.0453    0.0000 C   0  0  0  0  0  0  0  0  0  0  0  0
    7.5000    1.3443    0.0000 H   0  0  0  0  0  0  0  0  0  0  0  0
    6.0000   -1.2538    0.0000 H   0  0  0  0  0  0  0  0  0  0  0  0
    3.3655   -0.8606    0.0000 H   0  0  0  0  0  0  0  0  0  0  0  0
    3.0000    3.9424    0.0000 H   0  0  0  0  0  0  0  0  0  0  0  0
    6.0000    3.9424    0.0000 H   0  0  0  0  0  0  0  0  0  0  0  0
    0.7500    2.6434    0.0000 H   0  0  0  0  0  0  0  0  0  0  0  0
   -2.4768   -1.3737    0.0000 H   0  0  0  0  0  0  0  0  0  0  0  0
    2.4768   -1.3737    0.0000 H   0  0  0  0  0  0  0  0  0  0  0  0
    0.0000   -6.3611    0.0000 H   0  0  0  0  0  0  0  0  0  0  0  0
   -0.7500    2.6434    0.0000 H   0  0  0  0  0  0  0  0  0  0  0  0
   -3.0000    3.9424    0.0000 H   0  0  0  0  0  0  0  0  0  0  0  0
   -6.0000    3.9424    0.0000 H   0  0  0  0  0  0  0  0  0  0  0  0
   -7.5000    1.3443    0.0000 H   0  0  0  0  0  0  0  0  0  0  0  0
   -6.0000   -1.2538    0.0000 H   0  0  0  0  0  0  0  0  0  0  0  0
   -3.3655   -0.8606    0.0000 H   0  0  0  0  0  0  0  0  0  0  0  0
  1  2  2  0
  1  6  1  0
  1 26  1  0
  2  3  1  0
  2 27  1  0
  3  4  2  0
  3 28  1  0
  4  5  1  0
  4  7  1  0
  5  6  2  0
  5 29  1  0
  6 30  1  0
  7  8  1  0
  7 31  1  0
  8  9  1  0
  8 13  2  0
  9 10  2  0
  9 19  1  0
 10 11  1  0
 10 32  1  0
 11 12  2  0
 11 17  1  0
 12 13  1  0
 12 14  1  0
 13 33  1  0
 14 15  2  0
 14 16  1  0
 16 17  1  0
 16 34  1  0
 17 18  2  0
 19 20  1  0
 19 35  1  0
 20 21  2  0
 20 25  1  0
 21 22  1  0
 21 36  1  0
 22 23  2  0
 22 37  1  0
 23 24  1  0
 23 38  1  0
 24 25  2  0
 24 39  1  0
 25 40  1  0
M  END
$$$$

     RDKit          2D

 22 23  0  0  0  0  0  0  0  0999 V2000
   -3.5297   -0.7722    0.0000 C   0  0  0  0  0  0  0  0  0  0  0  0
   -2.2000   -0.0780    0.0000 C   0  0  0  0  0  0  0  0  0  0  0  0
   -0.8703    0.6162    0.0000 N   0  0  0  0  0  0  0  0  0  0  0  0
    0.4729   -0.0515    0.0000 C   0  0  0  0  0  0  0  0  0  0  0  0
    0.8754   -1.4965    0.0000 C   0  0  0  0  0  0  0  0  0  0  0  0
    2.3281   -1.8703    0.0000 C   0  0  0  0  0  0  0  0  0  0  0  0
    3.3782   -0.7992    0.0000 C   0  0  0  0  0  0  0  0  0  0  0  0
    2.9756    0.6458    0.0000 C   0  0  0  0  0  0  0  0  0  0  0  0
    1.5229    1.0196    0.0000 C   0  0  0  0  0  0  0  0  0  0  0  0
    0.8287    2.3493    0.0000 N   0  0  0  0  0  0  0  0  0  0  0  0
   -0.6504    2.1000    0.0000 C   0  0  0  0  0  0  0  0  0  0  0  0
   -1.7215    3.1501    0.0000 O   0  0  0  0  0  0  0  0  0  0  0  0
    4.8309   -1.1730    0.0000 Cl  0  0  0  0  0  0  0  0  0  0  0  0
    2.7307   -3.3153    0.0000 Cl  0  0  0  0  0  0  0  0  0  0  0  0
   -2.8355   -2.1019    0.0000 H   0  0  0  0  0  0  0  0  0  0  0  0
   -4.2239    0.5575    0.0000 H   0  0  0  0  0  0  0  0  0  0  0  0
   -4.8594   -1.4664    0.0000 H   0  0  0  0  0  0  0  0  0  0  0  0
   -2.8942    1.2517    0.0000 H   0  0  0  0  0  0  0  0  0  0  0  0
   -1.5058   -1.4077    0.0000 H   0  0  0  0  0  0  0  0  0  0  0  0
   -0.1746   -2.5676    0.0000 H   0  0  0  0  0  0  0  0  0  0  0  0
    4.0257    1.7169    0.0000 H   0  0  0  0  0  0  0  0  0  0  0  0
    1.4964    3.6925    0.0000 H   0  0  0  0  0  0  0  0  0  0  0  0
  1  2  1  0
  1 15  1  0
  1 16  1  0
  1 17  1  0
  2  3  1  0
  2 18  1  0
  2 19  1  0
  3  4  1  0
  3 11  1  0
  4  5  2  0
  4  9  1  0
  5  6  1  0
  5 20  1  0
  6  7  2  0
  6 14  1  0
  7  8  1  0
  7 13  1  0
  8  9  2  0
  8 21  1  0
  9 10  1  0
 10 11  1  0
 10 22  1  0
 11 12  2  0
M  END
$$$$

     RDKit          2D

 37 40  0  0  0  0  0  0  0  0999 V2000
    1.4748   -3.3142    0.0000 C   0  0  0  0  0  0  0  0  0  0  0  0
    1.4463   -1.8144    0.0000 N   0  0  0  0  0  0  0  0  0  0  0  0
    0.2163   -0.9560    0.0000 C   0  0  0  0  0  0  0  0  0  0  0  0
    0.6526    0.4792    0.0000 C   0  0  0  0  0  0  0  0  0  0  0  0
    2.1523    0.5077    0.0000 C   0  0  0  0  0  0  0  0  0  0  0  0
    3.1347    1.6413    0.0000 C   0  0  0  0  0  0  0  0  0  0  0  0
    4.6076    1.3573    0.0000 C   0  0  0  0  0  0  0  0  0  0  0  0
    5.0981   -0.0602    0.0000 C   0  0  0  0  0  0  0  0  0  0  0  0
    4.1158   -1.1938    0.0000 C   0  0  0  0  0  0  0  0  0  0  0  0
    2.6429   -0.9099    0.0000 C   0  0  0  0  0  0  0  0  0  0  0  0
   -0.2520    1.6757    0.0000 C   0  0  0  0  0  0  0  0  0  0  0  0
   -1.7517    1.6472    0.0000 C   0  0  0  0  0  0  0  0  0  0  0  0
   -2.2422    3.0647    0.0000 C   0  0  0  0  0  0  0  0  0  0  0  0
   -3.6774    3.5011    0.0000 O   0  0  0  0  0  0  0  0  0  0  0  0
   -1.0457    3.9693    0.0000 N   0  0  0  0  0  0  0  0  0  0  0  0
    0.1844    3.1109    0.0000 C   0  0  0  0  0  0  0  0  0  0  0  0
    1.6019    3.6014    0.0000 O   0  0  0  0  0  0  0  0  0  0  0  0
   -2.6102    0.4172    0.0000 C   0  0  0  0  0  0  0  0  0  0  0  0
   -4.1046    0.5456    0.0000 C   0  0  0  0  0  0  0  0  0  0  0  0
   -4.9631   -0.6845    0.0000 C   0  0  0  0  0  0  0  0  0  0  0  0
   -4.3271   -2.0430    0.0000 C   0  0  0  0  0  0  0  0  0  0  0  0
   -2.8326   -2.1714    0.0000 C   0  0  0  0  0  0  0  0  0  0  0  0
   -1.9741   -0.9413    0.0000 C   0  0  0  0  0  0  0  0  0  0  0  0
   -5.1855   -3.2730    0.0000 Cl  0  0  0  0  0  0  0  0  0  0  0  0
   -4.7407    1.9041    0.0000 Cl  0  0  0  0  0  0  0  0  0  0  0  0
   -0.0249   -3.3427    0.0000 H   0  0  0  0  0  0  0  0  0  0  0  0
    2.9746   -3.2857    0.0000 H   0  0  0  0  0  0  0  0  0  0  0  0
    1.5033   -4.8139    0.0000 H   0  0  0  0  0  0  0  0  0  0  0  0
   -0.4997   -1.3065    0.0000 H   0  0  0  0  0  0  0  0  0  0  0  0
    2.6441    3.0588    0.0000 H   0  0  0  0  0  0  0  0  0  0  0  0
    5.5899    2.4909    0.0000 H   0  0  0  0  0  0  0  0  0  0  0  0
    6.5710   -0.3441    0.0000 H   0  0  0  0  0  0  0  0  0  0  0  0
    4.6063   -2.6113    0.0000 H   0  0  0  0  0  0  0  0  0  0  0  0
   -1.0742    5.4690    0.0000 H   0  0  0  0  0  0  0  0  0  0  0  0
   -6.4576   -0.5561    0.0000 H   0  0  0  0  0  0  0  0  0  0  0  0
   -2.1966   -3.5299    0.0000 H   0  0  0  0  0  0  0  0  0  0  0  0
   -1.2571   -1.2897    0.0000 H   0  0  0  0  0  0  0  0  0  0  0  0
  1  2  1  0
  1 26  1  0
  1 27  1  0
  1 28  1  0
  2  3  1  0
  2 10  1  0
  3  4  2  0
  3 29  1  0
  4  5  1  0
  4 11  1  0
  5  6  1  0
  5 10  2  0
  6  7  2  0
  6 30  1  0
  7  8  1  0
  7 31  1  0
  8  9  2  0
  8 32  1  0
  9 10  1  0
  9 33  1  0
 11 12  2  0
 11 16  1  0
 12 13  1  0
 12 18  1  0
 13 14  2  0
 13 15  1  0
 15 16  1  0
 15 34  1  0
 16 17  2  0
 18 19  2  0
 18 23  1  0
 19 20  1  0
 19 25  1  0
 20 21  2  0
 20 35  1  0
 21 22  1  0
 21 24  1  0
 22 23  2  0
 22 36  1  0
 23 37  1  0
M  END
$$$$

     RDKit          2D

 42 46  0  0  1  0  0  0  0  0999 V2000
    5.3101   -2.8341    0.0000 C   0  0  0  0  0  0  0  0  0  0  0  0
    4.4261   -1.6223    0.0000 C   0  0  0  0  0  0  0  0  0  0  0  0
    3.5422   -0.4104    0.0000 C   0  0  0  0  0  0  0  0  0  0  0  0
    2.2970    0.4260    0.0000 C   0  0  0  0  0  0  0  0  0  0  0  0
    2.3989    1.9226    0.0000 C   0  0  0  0  0  0  0  0  0  0  0  0
    3.7458    2.5827    0.0000 C   0  0  0  0  0  0  0  0  0  0  0  0
    4.9909    1.7462    0.0000 O   0  0  0  0  0  0  0  0  0  0  0  0
    4.8891    0.2497    0.0000 C   0  0  0  0  0  0  0  0  0  0  0  0
    5.8644   -0.2449    0.0000 O   0  0  0  0  0  0  0  0  0  0  0  0
    1.1537    2.7590    0.0000 C   0  0  0  0  0  0  0  0  0  0  0  0
    1.2555    4.2556    0.0000 O   0  0  0  0  0  0  0  0  0  0  0  0
   -0.1932    2.0989    0.0000 N   0  0  0  0  0  0  0  0  0  0  0  0
   -1.5851    2.6582    0.0000 C   0  0  0  0  0  0  0  0  0  0  0  0
   -2.5471    1.5073    0.0000 C   0  0  0  0  0  0  0  0  0  0  0  0
   -4.0461    1.4522    0.0000 C   0  0  0  0  0  0  0  0  0  0  0  0
   -4.7478    0.1264    0.0000 C   0  0  0  0  0  0  0  0  0  0  0  0
   -6.2468    0.0712    0.0000 C   0  0  0  0  0  0  0  0  0  0  0  0
   -6.9485   -1.2545    0.0000 C   0  0  0  0  0  0  0  0  0  0  0  0
   -6.1512   -2.5251    0.0000 C   0  0  0  0  0  0  0  0  0  0  0  0
   -4.6522   -2.4699    0.0000 C   0  0  0  0  0  0  0  0  0  0  0  0
   -3.9505   -1.1442    0.0000 C   0  0  0  0  0  0  0  0  0  0  0  0
   -2.4515   -1.0890    0.0000 N   0  0  0  0  0  0  0  0  0  0  0  0
   -1.7498    0.2368    0.0000 C   0  0  0  0  0  0  0  0  0  0  0  0
   -0.2950    0.6024    0.0000 C   0  0  0  0  0  0  0  0  0  0  0  0
    0.9501   -0.2341    0.0000 C   0  0  0  0  0  0  0  0  0  0  0  0
    2.5022   -1.4914    0.0000 O   0  0  0  0  0  0  0  0  0  0  0  0
    6.5220   -1.9502    0.0000 H   0  0  0  0  0  0  0  0  0  0  0  0
    4.0982   -3.7181    0.0000 H   0  0  0  0  0  0  0  0  0  0  0  0
    6.1941   -4.0460    0.0000 H   0  0  0  0  0  0  0  0  0  0  0  0
    5.3815   -1.0903    0.0000 H   0  0  0  0  0  0  0  0  0  0  0  0
    3.6278   -2.3696    0.0000 H   0  0  0  0  0  0  0  0  0  0  0  0
    2.8618    3.7945    0.0000 H   0  0  0  0  0  0  0  0  0  0  0  0
    4.7858    3.6637    0.0000 H   0  0  0  0  0  0  0  0  0  0  0  0
   -0.8834    3.9840    0.0000 H   0  0  0  0  0  0  0  0  0  0  0  0
   -2.8302    3.4947    0.0000 H   0  0  0  0  0  0  0  0  0  0  0  0
   -4.8433    2.7227    0.0000 H   0  0  0  0  0  0  0  0  0  0  0  0
   -7.0440    1.3418    0.0000 H   0  0  0  0  0  0  0  0  0  0  0  0
   -8.4475   -1.3097    0.0000 H   0  0  0  0  0  0  0  0  0  0  0  0
   -6.8529   -3.8508    0.0000 H   0  0  0  0  0  0  0  0  0  0  0  0
   -3.8549   -3.7405    0.0000 H   0  0  0  0  0  0  0  0  0  0  0  0
    0.8483   -1.7306    0.0000 H   0  0  0  0  0  0  0  0  0  0  0  0
    2.6753   -2.5711    0.0000 H   0  0  0  0  0  0  0  0  0  0  0  0
  1  2  1  0
  1 27  1  0
  1 28  1  0
  1 29  1  0
  2  3  1  0
  2 30  1  0
  2 31  1  0
  3  4  1  0
  3  8  1  0
  3 26  1  1
  4  5  2  0
  4 25  1  0
  5  6  1  0
  5 10  1  0
  6  7  1  0
  6 32  1  0
  6 33  1  0
  7  8  1  0
  8  9  2  0
 10 11  2  0
 10 12  1  0
 12 13  1  0
 12 24  1  0
 13 14  1  0
 13 34  1  0
 13 35  1  0
 14 15  1  0
 14 23  2  0
 15 16  2  0
 15 36  1  0
 16 17  1  0
 16 21  1  0
 17 18  2  0
 17 37  1  0
 18 19  1  0
 18 38  1  0
 19 20  2  0
 19 39  1  0
 20 21  1  0
 20 40  1  0
 21 22  2  0
 22 23  1  0
 23 24  1  0
 24 25  2  0
 25 41  1  0
 26 42  1  0
M  END
$$$$

     RDKit          2D

 47 50  0  0  0  0  0  0  0  0999 V2000
   -8.0594   -0.5864    0.0000 C   0  0  0  0  0  0  0  0  0  0  0  0
   -6.5635   -0.4760    0.0000 C   0  0  0  0  0  0  0  0  0  0  0  0
   -5.9112    0.8748    0.0000 C   0  0  0  0  0  0  0  0  0  0  0  0
   -4.4153    0.9852    0.0000 C   0  0  0  0  0  0  0  0  0  0  0  0
   -3.5717   -0.2551    0.0000 C   0  0  0  0  0  0  0  0  0  0  0  0
   -4.2240   -1.6058    0.0000 C   0  0  0  0  0  0  0  0  0  0  0  0
   -5.7199   -1.7163    0.0000 C   0  0  0  0  0  0  0  0  0  0  0  0
   -2.0757   -0.1446    0.0000 C   0  0  0  0  0  0  0  0  0  0  0  0
   -0.6322   -0.5525    0.0000 C   0  0  0  0  0  0  0  0  0  0  0  0
   -1.7072   -1.5987    0.0000 C   0  0  0  0  0  0  0  0  0  0  0  0
   -1.9247    1.3477    0.0000 C   0  0  0  0  0  0  0  0  0  0  0  0
   -3.0433    2.3471    0.0000 N   0  0  0  0  0  0  0  0  0  0  0  0
   -2.4386    3.7198    0.0000 N   0  0  0  0  0  0  0  0  0  0  0  0
   -0.9462    3.5688    0.0000 N   0  0  0  0  0  0  0  0  0  0  0  0
   -0.6286    2.1028    0.0000 N   0  0  0  0  0  0  0  0  0  0  0  0
    0.7441    1.4980    0.0000 C   0  0  0  0  0  0  0  0  0  0  0  0
    2.1167    0.8932    0.0000 C   0  0  0  0  0  0  0  0  0  0  0  0
    3.4894    0.2885    0.0000 C   0  0  0  0  0  0  0  0  0  0  0  0
    3.6520   -1.2027    0.0000 C   0  0  0  0  0  0  0  0  0  0  0  0
    5.0247   -1.8075    0.0000 C   0  0  0  0  0  0  0  0  0  0  0  0
    6.2348   -0.9211    0.0000 C   0  0  0  0  0  0  0  0  0  0  0  0
    6.0722    0.5701    0.0000 C   0  0  0  0  0  0  0  0  0  0  0  0
    4.6995    1.1749    0.0000 C   0  0  0  0  0  0  0  0  0  0  0  0
    7.6075   -1.5259    0.0000 O   0  0  0  0  0  0  0  0  0  0  0  0
    8.8175   -0.6395    0.0000 C   0  0  0  0  0  0  0  0  0  0  0  0
   -8.1699    0.9095    0.0000 H   0  0  0  0  0  0  0  0  0  0  0  0
   -7.9490   -2.0824    0.0000 H   0  0  0  0  0  0  0  0  0  0  0  0
   -9.5554   -0.6969    0.0000 H   0  0  0  0  0  0  0  0  0  0  0  0
   -6.7548    2.1150    0.0000 H   0  0  0  0  0  0  0  0  0  0  0  0
   -4.1092    2.4536    0.0000 H   0  0  0  0  0  0  0  0  0  0  0  0
   -3.6682   -2.6863    0.0000 H   0  0  0  0  0  0  0  0  0  0  0  0
   -6.3722   -3.0670    0.0000 H   0  0  0  0  0  0  0  0  0  0  0  0
   -0.2007    0.1177    0.0000 H   0  0  0  0  0  0  0  0  0  0  0  0
    0.5847   -1.4294    0.0000 H   0  0  0  0  0  0  0  0  0  0  0  0
   -0.8636   -2.8389    0.0000 H   0  0  0  0  0  0  0  0  0  0  0  0
   -2.7462   -2.2285    0.0000 H   0  0  0  0  0  0  0  0  0  0  0  0
    1.3488    2.8707    0.0000 H   0  0  0  0  0  0  0  0  0  0  0  0
    0.5140    0.7348    0.0000 H   0  0  0  0  0  0  0  0  0  0  0  0
    2.7215    2.2659    0.0000 H   0  0  0  0  0  0  0  0  0  0  0  0
    1.5120   -0.4794    0.0000 H   0  0  0  0  0  0  0  0  0  0  0  0
    2.4419   -2.0891    0.0000 H   0  0  0  0  0  0  0  0  0  0  0  0
    5.1873   -3.2986    0.0000 H   0  0  0  0  0  0  0  0  0  0  0  0
    7.2823    1.4565    0.0000 H   0  0  0  0  0  0  0  0  0  0  0  0
    4.5369    2.6660    0.0000 H   0  0  0  0  0  0  0  0  0  0  0  0
    9.7039   -1.8496    0.0000 H   0  0  0  0  0  0  0  0  0  0  0  0
    7.9312    0.5706    0.0000 H   0  0  0  0  0  0  0  0  0  0  0  0
   10.0276    0.2469    0.0000 H   0  0  0  0  0  0  0  0  0  0  0  0
  1  2  1  0
  1 26  1  0
  1 27  1  0
  1 28  1  0
  2  3  2  0
  2  7  1  0
  3  4  1  0
  3 29  1  0
  4  5  2  0
  4 30  1  0
  5  6  1  0
  5  8  1  0
  6  7  2  0
  6 31  1  0
  7 32  1  0
  8  9  1  0
  8 10  1  0
  8 11  1  0
  9 10  1  0
  9 33  1  0
  9 34  1  0
 10 35  1  0
 10 36  1  0
 11 12  2  0
 11 15  1  0
 12 13  1  0
 13 14  2  0
 14 15  1  0
 15 16  1  0
 16 17  1  0
 16 37  1  0
 16 38  1  0
 17 18  1  0
 17 39  1  0
 17 40  1  0
 18 19  2  0
 18 23  1  0
 19 20  1  0
 19 41  1  0
 20 21  2  0
 20 42  1  0
 21 22  1  0
 21 24  1  0
 22 23  2  0
 22 43  1  0
 23 44  1  0
 24 25  1  0
 25 45  1  0
 25 46  1  0
 25 47  1  0
M  END
$$$$

     RDKit          2D

 49 52  0  0  0  0  0  0  0  0999 V2000
    4.5946   -2.8877    0.0000 C   0  0  0  0  0  0  0  0  0  0  0  0
    4.7108   -1.3922    0.0000 C   0  0  0  0  0  0  0  0  0  0  0  0
    3.4737   -0.5438    0.0000 C   0  0  0  0  0  0  0  0  0  0  0  0
    2.1205   -1.1910    0.0000 C   0  0  0  0  0  0  0  0  0  0  0  0
    2.0043   -2.6865    0.0000 C   0  0  0  0  0  0  0  0  0  0  0  0
    3.2413   -3.5348    0.0000 C   0  0  0  0  0  0  0  0  0  0  0  0
    0.8834   -0.3426    0.0000 C   0  0  0  0  0  0  0  0  0  0  0  0
   -0.3536    0.5058    0.0000 C   0  0  0  0  0  0  0  0  0  0  0  0
   -0.2374    2.0013    0.0000 C   0  0  0  0  0  0  0  0  0  0  0  0
   -1.4745    2.8496    0.0000 C   0  0  0  0  0  0  0  0  0  0  0  0
   -2.8277    2.2025    0.0000 C   0  0  0  0  0  0  0  0  0  0  0  0
   -2.9439    0.7070    0.0000 C   0  0  0  0  0  0  0  0  0  0  0  0
   -1.7068   -0.1414    0.0000 C   0  0  0  0  0  0  0  0  0  0  0  0
    1.7318    0.8944    0.0000 C   0  0  0  0  0  0  0  0  0  0  0  0
    1.0847    2.2477    0.0000 C   0  0  0  0  0  0  0  0  0  0  0  0
    1.9331    3.4847    0.0000 C   0  0  0  0  0  0  0  0  0  0  0  0
    3.4285    3.3685    0.0000 C   0  0  0  0  0  0  0  0  0  0  0  0
    4.0757    2.0153    0.0000 C   0  0  0  0  0  0  0  0  0  0  0  0
    3.2273    0.7783    0.0000 C   0  0  0  0  0  0  0  0  0  0  0  0
    0.0351   -1.5796    0.0000 N   0  0  0  0  0  0  0  0  0  0  0  0
   -1.4604   -1.4635    0.0000 C   0  0  0  0  0  0  0  0  0  0  0  0
   -2.9559   -1.3473    0.0000 C   0  0  0  0  0  0  0  0  0  0  0  0
   -3.8043   -2.5843    0.0000 C   0  0  0  0  0  0  0  0  0  0  0  0
   -5.2998   -2.4681    0.0000 N   0  0  0  0  0  0  0  0  0  0  0  0
   -5.9469   -1.1149    0.0000 C   0  0  0  0  0  0  0  0  0  0  0  0
   -5.0985    0.1222    0.0000 C   0  0  0  0  0  0  0  0  0  0  0  0
   -3.6030    0.0060    0.0000 C   0  0  0  0  0  0  0  0  0  0  0  0
    5.8316   -3.7361    0.0000 H   0  0  0  0  0  0  0  0  0  0  0  0
    6.0640   -0.7451    0.0000 H   0  0  0  0  0  0  0  0  0  0  0  0
    3.7259    0.2124    0.0000 H   0  0  0  0  0  0  0  0  0  0  0  0
    0.7400   -3.4937    0.0000 H   0  0  0  0  0  0  0  0  0  0  0  0
    3.1251   -5.0303    0.0000 H   0  0  0  0  0  0  0  0  0  0  0  0
    0.9190    2.9566    0.0000 H   0  0  0  0  0  0  0  0  0  0  0  0
   -1.3583    4.3451    0.0000 H   0  0  0  0  0  0  0  0  0  0  0  0
   -4.0647    3.0509    0.0000 H   0  0  0  0  0  0  0  0  0  0  0  0
   -4.4135    0.4066    0.0000 H   0  0  0  0  0  0  0  0  0  0  0  0
   -2.1814   -1.5643    0.0000 H   0  0  0  0  0  0  0  0  0  0  0  0
   -0.3383    2.7223    0.0000 H   0  0  0  0  0  0  0  0  0  0  0  0
    1.2859    4.8379    0.0000 H   0  0  0  0  0  0  0  0  0  0  0  0
    4.2769    4.6056    0.0000 H   0  0  0  0  0  0  0  0  0  0  0  0
    5.5712    1.8991    0.0000 H   0  0  0  0  0  0  0  0  0  0  0  0
    4.1826   -0.3782    0.0000 H   0  0  0  0  0  0  0  0  0  0  0  0
    0.5124   -3.0017    0.0000 H   0  0  0  0  0  0  0  0  0  0  0  0
   -1.5766   -2.9589    0.0000 H   0  0  0  0  0  0  0  0  0  0  0  0
   -1.7096    0.0157    0.0000 H   0  0  0  0  0  0  0  0  0  0  0  0
   -3.1572   -3.9375    0.0000 H   0  0  0  0  0  0  0  0  0  0  0  0
   -7.4424   -0.9987    0.0000 H   0  0  0  0  0  0  0  0  0  0  0  0
   -5.7457    1.4754    0.0000 H   0  0  0  0  0  0  0  0  0  0  0  0
   -3.0792    1.4115    0.0000 H   0  0  0  0  0  0  0  0  0  0  0  0
  1  2  2  0
  1  6  1  0
  1 28  1  0
  2  3  1  0
  2 29  1  0
  3  4  2  0
  3 30  1  0
  4  5  1  0
  4  7  1  0
  5  6  2  0
  5 31  1  0
  6 32  1  0
  7  8  1  0
  7 14  1  0
  7 20  1  0
  8  9  2  0
  8 13  1  0
  9 10  1  0
  9 33  1  0
 10 11  2  0
 10 34  1  0
 11 12  1  0
 11 35  1  0
 12 13  2  0
 12 36  1  0
 13 37  1  0
 14 15  2  0
 14 19  1  0
 15 16  1  0
 15 38  1  0
 16 17  2  0
 16 39  1  0
 17 18  1  0
 17 40  1  0
 18 19  2  0
 18 41  1  0
 19 42  1  0
 20 21  1  0
 20 43  1  0
 21 22  1  0
 21 44  1  0
 21 45  1  0
 22 23  2  0
 22 27  1  0
 23 24  1  0
 23 46  1  0
 24 25  2  0
 25 26  1  0
 25 47  1  0
 26 27  2  0
 26 48  1  0
 27 49  1  0
M  END
$$$$

     RDKit          2D

 37 36  0  0  0  0  0  0  0  0999 V2000
    5.7301    0.4243    0.0000 C   0  0  0  0  0  0  0  0  0  0  0  0
    4.3134    0.9170    0.0000 N   0  0  0  0  0  0  0  0  0  0  0  0
    3.1783   -0.0635    0.0000 C   0  0  0  0  0  0  0  0  0  0  0  0
    2.0431   -1.0441    0.0000 C   0  0  0  0  0  0  0  0  0  0  0  0
    0.9080   -2.0246    0.0000 N   0  0  0  0  0  0  0  0  0  0  0  0
   -0.5087   -1.5318    0.0000 S   0  0  0  0  0  0  0  0  0  0  0  0
   -1.0015   -2.9486    0.0000 O   0  0  0  0  0  0  0  0  0  0  0  0
   -0.0160   -0.1151    0.0000 O   0  0  0  0  0  0  0  0  0  0  0  0
   -1.9255   -1.0391    0.0000 C   0  0  0  0  0  0  0  0  0  0  0  0
   -3.0606   -2.0196    0.0000 C   0  0  0  0  0  0  0  0  0  0  0  0
   -4.4774   -1.5268    0.0000 C   0  0  0  0  0  0  0  0  0  0  0  0
   -4.7590   -0.0535    0.0000 C   0  0  0  0  0  0  0  0  0  0  0  0
   -3.6239    0.9270    0.0000 C   0  0  0  0  0  0  0  0  0  0  0  0
   -2.2071    0.4343    0.0000 C   0  0  0  0  0  0  0  0  0  0  0  0
   -1.0720    1.4148    0.0000 C   0  0  0  0  0  0  0  0  0  0  0  0
   -1.3536    2.8881    0.0000 C   0  0  0  0  0  0  0  0  0  0  0  0
   -2.7703    3.3809    0.0000 N   0  0  0  0  0  0  0  0  0  0  0  0
   -3.9055    2.4004    0.0000 C   0  0  0  0  0  0  0  0  0  0  0  0
   -0.7500    4.8687    0.0000 Cl  0  0  0  0  0  0  0  0  0  0  0  0
   -0.7500    5.8687    0.0000 Cl  0  0  0  0  0  0  0  0  0  0  0  0
    6.2229    1.8410    0.0000 H   0  0  0  0  0  0  0  0  0  0  0  0
    5.2374   -0.9925    0.0000 H   0  0  0  0  0  0  0  0  0  0  0  0
    7.1469   -0.0685    0.0000 H   0  0  0  0  0  0  0  0  0  0  0  0
    4.0318    2.3904    0.0000 H   0  0  0  0  0  0  0  0  0  0  0  0
    2.1977    1.0716    0.0000 H   0  0  0  0  0  0  0  0  0  0  0  0
    4.1588   -1.1986    0.0000 H   0  0  0  0  0  0  0  0  0  0  0  0
    3.0237   -2.1792    0.0000 H   0  0  0  0  0  0  0  0  0  0  0  0
    1.0626    0.0911    0.0000 H   0  0  0  0  0  0  0  0  0  0  0  0
    1.1896   -3.4979    0.0000 H   0  0  0  0  0  0  0  0  0  0  0  0
   -2.7790   -3.4929    0.0000 H   0  0  0  0  0  0  0  0  0  0  0  0
   -5.6125   -2.5074    0.0000 H   0  0  0  0  0  0  0  0  0  0  0  0
   -6.1757    0.4393    0.0000 H   0  0  0  0  0  0  0  0  0  0  0  0
    0.3448    0.9220    0.0000 H   0  0  0  0  0  0  0  0  0  0  0  0
   -0.2185    3.8687    0.0000 H   0  0  0  0  0  0  0  0  0  0  0  0
   -5.3222    2.8931    0.0000 H   0  0  0  0  0  0  0  0  0  0  0  0
    0.7500    4.8687    0.0000 H   0  0  0  0  0  0  0  0  0  0  0  0
    0.7500    5.8687    0.0000 H   0  0  0  0  0  0  0  0  0  0  0  0
  1  2  1  0
  1 21  1  0
  1 22  1  0
  1 23  1  0
  2  3  1  0
  2 24  1  0
  3  4  1  0
  3 25  1  0
  3 26  1  0
  4  5  1  0
  4 27  1  0
  4 28  1  0
  5  6  1  0
  5 29  1  0
  6  7  2  0
  6  8  2  0
  6  9  1  0
  9 10  2  0
  9 14  1  0
 10 11  1  0
 10 30  1  0
 11 12  2  0
 11 31  1  0
 12 13  1  0
 12 32  1  0
 13 14  2  0
 13 18  1  0
 14 15  1  0
 15 16  2  0
 15 33  1  0
 16 17  1  0
 16 34  1  0
 17 18  2  0
 18 35  1  0
 19 36  1  0
 20 37  1  0
M  END
$$$$

     RDKit          2D

 45 48  0  0  0  0  0  0  0  0999 V2000
    0.6022   -1.3766    0.0000 C   0  0  0  0  0  0  0  0  0  0  0  0
   -0.7974   -1.9162    0.0000 C   0  0  0  0  0  0  0  0  0  0  0  0
   -1.9645   -0.9740    0.0000 N   0  0  0  0  0  0  0  0  0  0  0  0
   -1.7320    0.5079    0.0000 C   0  0  0  0  0  0  0  0  0  0  0  0
   -0.3324    1.0475    0.0000 C   0  0  0  0  0  0  0  0  0  0  0  0
    0.8347    0.1052    0.0000 N   0  0  0  0  0  0  0  0  0  0  0  0
    2.2343    0.6448    0.0000 C   0  0  0  0  0  0  0  0  0  0  0  0
    3.4014   -0.2975    0.0000 C   0  0  0  0  0  0  0  0  0  0  0  0
    3.1689   -1.7793    0.0000 C   0  0  0  0  0  0  0  0  0  0  0  0
    4.3360   -2.7216    0.0000 C   0  0  0  0  0  0  0  0  0  0  0  0
    5.7356   -2.1820    0.0000 C   0  0  0  0  0  0  0  0  0  0  0  0
    5.9680   -0.7001    0.0000 N   0  0  0  0  0  0  0  0  0  0  0  0
    4.8010    0.2421    0.0000 C   0  0  0  0  0  0  0  0  0  0  0  0
    5.0334    1.7240    0.0000 C   0  0  0  0  0  0  0  0  0  0  0  0
    3.8663    2.6663    0.0000 C   0  0  0  0  0  0  0  0  0  0  0  0
    2.4668    2.1267    0.0000 C   0  0  0  0  0  0  0  0  0  0  0  0
    6.4330    2.2636    0.0000 N   0  0  0  0  0  0  0  0  0  0  0  0
    6.6655    3.7455    0.0000 O   0  0  0  0  0  0  0  0  0  0  0  0
    7.6001    1.3213    0.0000 O   0  0  0  0  0  0  0  0  0  0  0  0
   -3.3641   -1.5135    0.0000 C   0  0  0  0  0  0  0  0  0  0  0  0
   -3.5966   -2.9954    0.0000 O   0  0  0  0  0  0  0  0  0  0  0  0
   -4.5312   -0.5713    0.0000 C   0  0  0  0  0  0  0  0  0  0  0  0
   -4.2987    0.9106    0.0000 C   0  0  0  0  0  0  0  0  0  0  0  0
   -5.4658    1.8529    0.0000 C   0  0  0  0  0  0  0  0  0  0  0  0
   -6.8654    1.3133    0.0000 C   0  0  0  0  0  0  0  0  0  0  0  0
   -7.0978   -0.1686    0.0000 C   0  0  0  0  0  0  0  0  0  0  0  0
   -5.9307   -1.1109    0.0000 C   0  0  0  0  0  0  0  0  0  0  0  0
   -8.0324    2.2556    0.0000 Cl  0  0  0  0  0  0  0  0  0  0  0  0
    2.1019   -1.3483    0.0000 H   0  0  0  0  0  0  0  0  0  0  0  0
    0.8906   -2.8487    0.0000 H   0  0  0  0  0  0  0  0  0  0  0  0
   -0.0230   -3.2009    0.0000 H   0  0  0  0  0  0  0  0  0  0  0  0
   -1.9280   -2.9020    0.0000 H   0  0  0  0  0  0  0  0  0  0  0  0
   -3.2317    0.4796    0.0000 H   0  0  0  0  0  0  0  0  0  0  0  0
   -2.0204    1.9799    0.0000 H   0  0  0  0  0  0  0  0  0  0  0  0
   -1.1068    2.3321    0.0000 H   0  0  0  0  0  0  0  0  0  0  0  0
    0.7982    2.0333    0.0000 H   0  0  0  0  0  0  0  0  0  0  0  0
    1.7693   -2.3189    0.0000 H   0  0  0  0  0  0  0  0  0  0  0  0
    4.1035   -4.2035    0.0000 H   0  0  0  0  0  0  0  0  0  0  0  0
    6.9027   -3.1243    0.0000 H   0  0  0  0  0  0  0  0  0  0  0  0
    4.0988    4.1482    0.0000 H   0  0  0  0  0  0  0  0  0  0  0  0
    1.2997    3.0690    0.0000 H   0  0  0  0  0  0  0  0  0  0  0  0
   -2.8991    1.4502    0.0000 H   0  0  0  0  0  0  0  0  0  0  0  0
   -5.2333    3.3348    0.0000 H   0  0  0  0  0  0  0  0  0  0  0  0
   -8.4974   -0.7082    0.0000 H   0  0  0  0  0  0  0  0  0  0  0  0
   -6.1632   -2.5927    0.0000 H   0  0  0  0  0  0  0  0  0  0  0  0
  1  2  1  0
  1  6  1  0
  1 29  1  0
  1 30  1  0
  2  3  1  0
  2 31  1  0
  2 32  1  0
  3  4  1  0
  3 20  1  0
  4  5  1  0
  4 33  1  0
  4 34  1  0
  5  6  1  0
  5 35  1  0
  5 36  1  0
  6  7  1  0
  7  8  1  0
  7 16  2  0
  8  9  2  0
  8 13  1  0
  9 10  1  0
  9 37  1  0
 10 11  2  0
 10 38  1  0
 11 12  1  0
 11 39  1  0
 12 13  2  0
 13 14  1  0
 14 15  2  0
 14 17  1  0
 15 16  1  0
 15 40  1  0
 16 41  1  0
 17 18  2  0
 17 19  1  0
 20 21  2  0
 20 22  1  0
 22 23  2  0
 22 27  1  0
 23 24  1  0
 23 42  1  0
 24 25  2  0
 24 43  1  0
 25 26  1  0
 25 28  1  0
 26 27  2  0
 26 44  1  0
 27 45  1  0
M  CHG  2  17   1  19  -1
M  END
$$$$

     RDKit          2D

 25 26  0  0  0  0  0  0  0  0999 V2000
   -4.6461    0.5717    0.0000 C   0  0  0  0  0  0  0  0  0  0  0  0
   -4.0299   -0.7958    0.0000 C   0  0  0  0  0  0  0  0  0  0  0  0
   -2.5374   -0.9460    0.0000 C   0  0  0  0  0  0  0  0  0  0  0  0
   -1.0449   -1.0961    0.0000 N   0  0  0  0  0  0  0  0  0  0  0  0
   -0.1687    0.1214    0.0000 C   0  0  0  0  0  0  0  0  0  0  0  0
   -0.7849    1.4890    0.0000 N   0  0  0  0  0  0  0  0  0  0  0  0
    0.0913    2.7064    0.0000 C   0  0  0  0  0  0  0  0  0  0  0  0
    1.5838    2.5563    0.0000 N   0  0  0  0  0  0  0  0  0  0  0  0
    2.2000    1.1888    0.0000 C   0  0  0  0  0  0  0  0  0  0  0  0
    1.3238   -0.0287    0.0000 C   0  0  0  0  0  0  0  0  0  0  0  0
    1.9400   -1.3963    0.0000 C   0  0  0  0  0  0  0  0  0  0  0  0
    3.4325   -1.5464    0.0000 C   0  0  0  0  0  0  0  0  0  0  0  0
    4.3087   -0.3289    0.0000 C   0  0  0  0  0  0  0  0  0  0  0  0
    3.6925    1.0387    0.0000 C   0  0  0  0  0  0  0  0  0  0  0  0
    4.0487   -2.9139    0.0000 Br  0  0  0  0  0  0  0  0  0  0  0  0
   -6.1386    0.7218    0.0000 H   0  0  0  0  0  0  0  0  0  0  0  0
   -3.7699    1.7892    0.0000 H   0  0  0  0  0  0  0  0  0  0  0  0
   -4.9061   -2.0133    0.0000 H   0  0  0  0  0  0  0  0  0  0  0  0
   -2.6875   -2.4384    0.0000 H   0  0  0  0  0  0  0  0  0  0  0  0
   -2.3873    0.5465    0.0000 H   0  0  0  0  0  0  0  0  0  0  0  0
   -0.4287   -2.4636    0.0000 H   0  0  0  0  0  0  0  0  0  0  0  0
   -0.5250    4.0740    0.0000 H   0  0  0  0  0  0  0  0  0  0  0  0
    1.0638   -2.6137    0.0000 H   0  0  0  0  0  0  0  0  0  0  0  0
    5.8012   -0.4790    0.0000 H   0  0  0  0  0  0  0  0  0  0  0  0
    4.5687    2.2561    0.0000 H   0  0  0  0  0  0  0  0  0  0  0  0
  1  2  2  0
  1 16  1  0
  1 17  1  0
  2  3  1  0
  2 18  1  0
  3  4  1  0
  3 19  1  0
  3 20  1  0
  4  5  1  0
  4 21  1  0
  5  6  2  0
  5 10  1  0
  6  7  1  0
  7  8  2  0
  7 22  1  0
  8  9  1  0
  9 10  2  0
  9 14  1  0
 10 11  1  0
 11 12  2  0
 11 23  1  0
 12 13  1  0
 12 15  1  0
 13 14  2  0
 13 24  1  0
 14 25  1  0
M  END
$$$$

     RDKit          2D

 39 42  0  0  0  0  0  0  0  0999 V2000
   -3.9986   -1.2131    0.0000 C   0  0  0  0  0  0  0  0  0  0  0  0
   -5.4974   -1.1522    0.0000 C   0  0  0  0  0  0  0  0  0  0  0  0
   -6.1941    0.1762    0.0000 C   0  0  0  0  0  0  0  0  0  0  0  0
   -5.3920    1.4437    0.0000 C   0  0  0  0  0  0  0  0  0  0  0  0
   -3.8932    1.3829    0.0000 C   0  0  0  0  0  0  0  0  0  0  0  0
   -3.1965    0.0545    0.0000 C   0  0  0  0  0  0  0  0  0  0  0  0
   -1.6978   -0.0064    0.0000 C   0  0  0  0  0  0  0  0  0  0  0  0
   -0.7676    1.1704    0.0000 N   0  0  0  0  0  0  0  0  0  0  0  0
    0.6390    0.6493    0.0000 C   0  0  0  0  0  0  0  0  0  0  0  0
    0.5782   -0.8494    0.0000 C   0  0  0  0  0  0  0  0  0  0  0  0
   -0.8661   -1.2547    0.0000 N   0  0  0  0  0  0  0  0  0  0  0  0
    1.7549   -1.7796    0.0000 C   0  0  0  0  0  0  0  0  0  0  0  0
    3.1489   -1.2256    0.0000 C   0  0  0  0  0  0  0  0  0  0  0  0
    4.3256   -2.1558    0.0000 C   0  0  0  0  0  0  0  0  0  0  0  0
    4.1084   -3.6400    0.0000 N   0  0  0  0  0  0  0  0  0  0  0  0
    2.7145   -4.1940    0.0000 C   0  0  0  0  0  0  0  0  0  0  0  0
    1.5377   -3.2638    0.0000 C   0  0  0  0  0  0  0  0  0  0  0  0
    1.8873    1.4810    0.0000 C   0  0  0  0  0  0  0  0  0  0  0  0
    1.7912    2.9780    0.0000 C   0  0  0  0  0  0  0  0  0  0  0  0
    3.0395    3.8097    0.0000 C   0  0  0  0  0  0  0  0  0  0  0  0
    4.3839    3.1445    0.0000 C   0  0  0  0  0  0  0  0  0  0  0  0
    4.4801    1.6475    0.0000 C   0  0  0  0  0  0  0  0  0  0  0  0
    3.2318    0.8158    0.0000 C   0  0  0  0  0  0  0  0  0  0  0  0
    5.6322    3.9762    0.0000 F   0  0  0  0  0  0  0  0  0  0  0  0
   -7.6928    0.2371    0.0000 O   0  0  0  0  0  0  0  0  0  0  0  0
   -3.3020   -2.5415    0.0000 H   0  0  0  0  0  0  0  0  0  0  0  0
   -6.2995   -2.4197    0.0000 H   0  0  0  0  0  0  0  0  0  0  0  0
   -6.0886    2.7721    0.0000 H   0  0  0  0  0  0  0  0  0  0  0  0
   -3.0911    2.6504    0.0000 H   0  0  0  0  0  0  0  0  0  0  0  0
   -1.3871   -2.6613    0.0000 H   0  0  0  0  0  0  0  0  0  0  0  0
    3.4517   -0.4882    0.0000 H   0  0  0  0  0  0  0  0  0  0  0  0
    5.7195   -1.6018    0.0000 H   0  0  0  0  0  0  0  0  0  0  0  0
    2.4973   -5.6782    0.0000 H   0  0  0  0  0  0  0  0  0  0  0  0
    0.1438   -3.8178    0.0000 H   0  0  0  0  0  0  0  0  0  0  0  0
    0.4468    3.6432    0.0000 H   0  0  0  0  0  0  0  0  0  0  0  0
    2.9434    5.3066    0.0000 H   0  0  0  0  0  0  0  0  0  0  0  0
    5.8245    0.9823    0.0000 H   0  0  0  0  0  0  0  0  0  0  0  0
    3.4738    0.0563    0.0000 H   0  0  0  0  0  0  0  0  0  0  0  0
   -8.3895    1.5655    0.0000 H   0  0  0  0  0  0  0  0  0  0  0  0
  1  2  2  0
  1  6  1  0
  1 26  1  0
  2  3  1  0
  2 27  1  0
  3  4  2  0
  3 25  1  0
  4  5  1  0
  4 28  1  0
  5  6  2  0
  5 29  1  0
  6  7  1  0
  7  8  2  0
  7 11  1  0
  8  9  1  0
  9 10  2  0
  9 18  1  0
 10 11  1  0
 10 12  1  0
 11 30  1  0
 12 13  2  0
 12 17  1  0
 13 14  1  0
 13 31  1  0
 14 15  2  0
 14 32  1  0
 15 16  1  0
 16 17  2  0
 16 33  1  0
 17 34  1  0
 18 19  2  0
 18 23  1  0
 19 20  1  0
 19 35  1  0
 20 21  2  0
 20 36  1  0
 21 22  1  0
 21 24  1  0
 22 23  2  0
 22 37  1  0
 23 38  1  0
 25 39  1  0
M  END
$$$$

     RDKit          2D

 57 62  0  0  0  0  0  0  0  0999 V2000
   -8.0278   -1.6328    0.0000 C   0  0  0  0  0  0  0  0  0  0  0  0
   -8.2146   -0.1445    0.0000 C   0  0  0  0  0  0  0  0  0  0  0  0
   -7.0190    0.7614    0.0000 C   0  0  0  0  0  0  0  0  0  0  0  0
   -5.6367    0.1790    0.0000 C   0  0  0  0  0  0  0  0  0  0  0  0
   -4.2789    0.8165    0.0000 C   0  0  0  0  0  0  0  0  0  0  0  0
   -4.4516    2.3133    0.0000 C   0  0  0  0  0  0  0  0  0  0  0  0
   -5.7655    3.0371    0.0000 C   0  0  0  0  0  0  0  0  0  0  0  0
   -7.0492    2.2611    0.0000 C   0  0  0  0  0  0  0  0  0  0  0  0
   -3.2530   -0.2778    0.0000 N   0  0  0  0  0  0  0  0  0  0  0  0
   -3.9767   -1.5917    0.0000 S   0  0  0  0  0  0  0  0  0  0  0  0
   -2.5944   -2.1741    0.0000 O   0  0  0  0  0  0  0  0  0  0  0  0
   -4.4115   -3.0273    0.0000 O   0  0  0  0  0  0  0  0  0  0  0  0
   -5.4499   -1.3094    0.0000 N   0  0  0  0  0  0  0  0  0  0  0  0
   -6.6455   -2.2153    0.0000 C   0  0  0  0  0  0  0  0  0  0  0  0
   -1.7647   -0.0910    0.0000 C   0  0  0  0  0  0  0  0  0  0  0  0
   -0.2764    0.0957    0.0000 C   0  0  0  0  0  0  0  0  0  0  0  0
    1.2120    0.2825    0.0000 N   0  0  0  0  0  0  0  0  0  0  0  0
    1.7944    1.6648    0.0000 C   0  0  0  0  0  0  0  0  0  0  0  0
    3.2827    1.8516    0.0000 C   0  0  0  0  0  0  0  0  0  0  0  0
    4.1886    0.6560    0.0000 C   0  0  0  0  0  0  0  0  0  0  0  0
    3.6062   -0.7263    0.0000 C   0  0  0  0  0  0  0  0  0  0  0  0
    2.1179   -0.9131    0.0000 C   0  0  0  0  0  0  0  0  0  0  0  0
    5.6769    0.8428    0.0000 C   0  0  0  0  0  0  0  0  0  0  0  0
    6.4007    2.1566    0.0000 C   0  0  0  0  0  0  0  0  0  0  0  0
    7.8739    1.8743    0.0000 N   0  0  0  0  0  0  0  0  0  0  0  0
    8.0606    0.3860    0.0000 C   0  0  0  0  0  0  0  0  0  0  0  0
    6.7029   -0.2515    0.0000 C   0  0  0  0  0  0  0  0  0  0  0  0
    6.5761   -1.7462    0.0000 C   0  0  0  0  0  0  0  0  0  0  0  0
    7.8071   -2.6033    0.0000 C   0  0  0  0  0  0  0  0  0  0  0  0
    9.1649   -1.9657    0.0000 C   0  0  0  0  0  0  0  0  0  0  0  0
    9.2916   -0.4711    0.0000 C   0  0  0  0  0  0  0  0  0  0  0  0
   10.3959   -2.8228    0.0000 F   0  0  0  0  0  0  0  0  0  0  0  0
   -8.3613   -3.0953    0.0000 H   0  0  0  0  0  0  0  0  0  0  0  0
   -9.5259   -1.5583    0.0000 H   0  0  0  0  0  0  0  0  0  0  0  0
   -9.6478   -0.5869    0.0000 H   0  0  0  0  0  0  0  0  0  0  0  0
   -8.8991    1.1902    0.0000 H   0  0  0  0  0  0  0  0  0  0  0  0
   -3.1679    3.0893    0.0000 H   0  0  0  0  0  0  0  0  0  0  0  0
   -5.7956    4.5368    0.0000 H   0  0  0  0  0  0  0  0  0  0  0  0
   -8.3630    2.9848    0.0000 H   0  0  0  0  0  0  0  0  0  0  0  0
   -5.5457   -3.2353    0.0000 H   0  0  0  0  0  0  0  0  0  0  0  0
   -7.4591   -3.4754    0.0000 H   0  0  0  0  0  0  0  0  0  0  0  0
   -1.5779   -1.5794    0.0000 H   0  0  0  0  0  0  0  0  0  0  0  0
   -1.9515    1.3973    0.0000 H   0  0  0  0  0  0  0  0  0  0  0  0
   -0.2724   -1.4043    0.0000 H   0  0  0  0  0  0  0  0  0  0  0  0
   -0.6432    1.5502    0.0000 H   0  0  0  0  0  0  0  0  0  0  0  0
    1.8689    3.1629    0.0000 H   0  0  0  0  0  0  0  0  0  0  0  0
    0.3835    2.1741    0.0000 H   0  0  0  0  0  0  0  0  0  0  0  0
    4.6174    2.5361    0.0000 H   0  0  0  0  0  0  0  0  0  0  0  0
    2.8403    3.2848    0.0000 H   0  0  0  0  0  0  0  0  0  0  0  0
    4.3596   -2.0234    0.0000 H   0  0  0  0  0  0  0  0  0  0  0  0
    0.8766   -1.7552    0.0000 H   0  0  0  0  0  0  0  0  0  0  0  0
    2.5602   -2.3464    0.0000 H   0  0  0  0  0  0  0  0  0  0  0  0
    5.7631    3.5144    0.0000 H   0  0  0  0  0  0  0  0  0  0  0  0
    8.9682    2.9002    0.0000 H   0  0  0  0  0  0  0  0  0  0  0  0
    5.3062   -2.5445    0.0000 H   0  0  0  0  0  0  0  0  0  0  0  0
    7.6803   -4.0979    0.0000 H   0  0  0  0  0  0  0  0  0  0  0  0
   10.6494    0.1664    0.0000 H   0  0  0  0  0  0  0  0  0  0  0  0
  1  2  1  0
  1 14  1  0
  1 33  1  0
  1 34  1  0
  2  3  1  0
  2 35  1  0
  2 36  1  0
  3  4  2  0
  3  8  1  0
  4  5  1  0
  4 13  1  0
  5  6  2  0
  5  9  1  0
  6  7  1  0
  6 37  1  0
  7  8  2  0
  7 38  1  0
  8 39  1  0
  9 10  1  0
  9 15  1  0
 10 11  2  0
 10 12  2  0
 10 13  1  0
 13 14  1  0
 14 40  1  0
 14 41  1  0
 15 16  1  0
 15 42  1  0
 15 43  1  0
 16 17  1  0
 16 44  1  0
 16 45  1  0
 17 18  1  0
 17 22  1  0
 18 19  1  0
 18 46  1  0
 18 47  1  0
 19 20  1  0
 19 48  1  0
 19 49  1  0
 20 21  2  0
 20 23  1  0
 21 22  1  0
 21 50  1  0
 22 51  1  0
 22 52  1  0
 23 24  2  0
 23 27  1  0
 24 25  1  0
 24 53  1  0
 25 26  1  0
 25 54  1  0
 26 27  2  0
 26 31  1  0
 27 28  1  0
 28 29  2  0
 28 55  1  0
 29 30  1  0
 29 56  1  0
 30 31  2  0
 30 32  1  0
 31 57  1  0
M  END
$$$$

     RDKit          2D

 39 42  0  0  0  0  0  0  0  0999 V2000
    6.8568   -1.3830    0.0000 C   0  0  0  0  0  0  0  0  0  0  0  0
    5.8282   -2.4747    0.0000 C   0  0  0  0  0  0  0  0  0  0  0  0
    4.3683   -2.1298    0.0000 C   0  0  0  0  0  0  0  0  0  0  0  0
    3.9372   -0.6931    0.0000 C   0  0  0  0  0  0  0  0  0  0  0  0
    4.9658    0.3986    0.0000 C   0  0  0  0  0  0  0  0  0  0  0  0
    6.4256    0.0537    0.0000 C   0  0  0  0  0  0  0  0  0  0  0  0
    2.4774   -0.3482    0.0000 C   0  0  0  0  0  0  0  0  0  0  0  0
    1.0175   -0.0033    0.0000 N   0  0  0  0  0  0  0  0  0  0  0  0
    0.4385    1.3805    0.0000 C   0  0  0  0  0  0  0  0  0  0  0  0
    1.0794    2.7366    0.0000 C   0  0  0  0  0  0  0  0  0  0  0  0
    0.2254    3.9698    0.0000 C   0  0  0  0  0  0  0  0  0  0  0  0
   -1.2696    3.8467    0.0000 C   0  0  0  0  0  0  0  0  0  0  0  0
   -1.9104    2.4905    0.0000 C   0  0  0  0  0  0  0  0  0  0  0  0
   -1.0564    1.2574    0.0000 C   0  0  0  0  0  0  0  0  0  0  0  0
   -1.4013   -0.2024    0.0000 C   0  0  0  0  0  0  0  0  0  0  0  0
   -0.1196   -0.9816    0.0000 N   0  0  0  0  0  0  0  0  0  0  0  0
   -2.7851   -0.7814    0.0000 C   0  0  0  0  0  0  0  0  0  0  0  0
   -3.1300   -2.2412    0.0000 C   0  0  0  0  0  0  0  0  0  0  0  0
   -4.6249   -2.3643    0.0000 C   0  0  0  0  0  0  0  0  0  0  0  0
   -5.2039   -0.9805    0.0000 C   0  0  0  0  0  0  0  0  0  0  0  0
   -4.0668   -0.0023    0.0000 O   0  0  0  0  0  0  0  0  0  0  0  0
   -6.6637   -0.6356    0.0000 C   0  0  0  0  0  0  0  0  0  0  0  0
   -8.1235   -0.2907    0.0000 O   0  0  0  0  0  0  0  0  0  0  0  0
    8.3166   -1.7279    0.0000 H   0  0  0  0  0  0  0  0  0  0  0  0
    6.2593   -3.9114    0.0000 H   0  0  0  0  0  0  0  0  0  0  0  0
    3.3397   -3.2216    0.0000 H   0  0  0  0  0  0  0  0  0  0  0  0
    4.5346    1.8353    0.0000 H   0  0  0  0  0  0  0  0  0  0  0  0
    7.4542    1.1455    0.0000 H   0  0  0  0  0  0  0  0  0  0  0  0
    2.1324   -1.8080    0.0000 H   0  0  0  0  0  0  0  0  0  0  0  0
    2.8223    1.1116    0.0000 H   0  0  0  0  0  0  0  0  0  0  0  0
    2.5744    2.8597    0.0000 H   0  0  0  0  0  0  0  0  0  0  0  0
    0.8663    5.3260    0.0000 H   0  0  0  0  0  0  0  0  0  0  0  0
   -2.1236    5.0798    0.0000 H   0  0  0  0  0  0  0  0  0  0  0  0
   -3.4054    2.3675    0.0000 H   0  0  0  0  0  0  0  0  0  0  0  0
   -2.1517   -3.3783    0.0000 H   0  0  0  0  0  0  0  0  0  0  0  0
   -5.4041   -3.6461    0.0000 H   0  0  0  0  0  0  0  0  0  0  0  0
   -7.0087   -2.0954    0.0000 H   0  0  0  0  0  0  0  0  0  0  0  0
   -6.3188    0.8242    0.0000 H   0  0  0  0  0  0  0  0  0  0  0  0
   -9.1522   -1.3825    0.0000 H   0  0  0  0  0  0  0  0  0  0  0  0
  1  2  2  0
  1  6  1  0
  1 24  1  0
  2  3  1  0
  2 25  1  0
  3  4  2  0
  3 26  1  0
  4  5  1  0
  4  7  1  0
  5  6  2  0
  5 27  1  0
  6 28  1  0
  7  8  1  0
  7 29  1  0
  7 30  1  0
  8  9  1  0
  8 16  1  0
  9 10  2  0
  9 14  1  0
 10 11  1  0
 10 31  1  0
 11 12  2  0
 11 32  1  0
 12 13  1  0
 12 33  1  0
 13 14  2  0
 13 34  1  0
 14 15  1  0
 15 16  2  0
 15 17  1  0
 17 18  2  0
 17 21  1  0
 18 19  1  0
 18 35  1  0
 19 20  2  0
 19 36  1  0
 20 21  1  0
 20 22  1  0
 22 23  1  0
 22 37  1  0
 22 38  1  0
 23 39  1  0
M  END
$$$$

     RDKit          2D

 32 34  0  0  1  0  0  0  0  0999 V2000
    0.8047   -1.6153    0.0000 C   0  0  0  0  0  0  0  0  0  0  0  0
    2.2624   -1.9688    0.0000 N   0  0  0  0  0  0  0  0  0  0  0  0
    3.0491   -0.6917    0.0000 C   0  0  0  0  0  0  0  0  0  0  0  0
    4.5246   -0.4217    0.0000 C   0  0  0  0  0  0  0  0  0  0  0  0
    5.0286    0.9911    0.0000 N   0  0  0  0  0  0  0  0  0  0  0  0
    4.0571    2.1339    0.0000 C   0  0  0  0  0  0  0  0  0  0  0  0
    2.5816    1.8640    0.0000 N   0  0  0  0  0  0  0  0  0  0  0  0
    2.0776    0.4512    0.0000 C   0  0  0  0  0  0  0  0  0  0  0  0
    0.6904   -0.1197    0.0000 N   0  0  0  0  0  0  0  0  0  0  0  0
   -0.5867    0.6670    0.0000 C   0  0  0  0  0  0  0  0  0  0  0  0
   -1.6724    1.7021    0.0000 C   0  0  0  0  0  0  0  0  0  0  0  0
   -2.9923    0.9894    0.0000 C   0  0  0  0  0  0  0  0  0  0  0  0
   -2.7223   -0.4861    0.0000 C   0  0  0  0  0  0  0  0  0  0  0  0
   -1.2356   -0.6853    0.0000 O   0  0  0  0  0  0  0  0  0  0  0  0
   -2.7650   -1.9855    0.0000 C   0  0  0  0  0  0  0  0  0  0  0  0
   -2.8078   -3.4849    0.0000 O   0  0  0  0  0  0  0  0  0  0  0  0
   -4.4315    0.5667    0.0000 O   0  0  0  0  0  0  0  0  0  0  0  0
   -2.5191    2.9402    0.0000 O   0  0  0  0  0  0  0  0  0  0  0  0
    4.5610    3.5467    0.0000 Cl  0  0  0  0  0  0  0  0  0  0  0  0
    5.4962   -1.5646    0.0000 N   0  0  0  0  0  0  0  0  0  0  0  0
   -0.3382   -2.5868    0.0000 H   0  0  0  0  0  0  0  0  0  0  0  0
    0.3292    1.8550    0.0000 H   0  0  0  0  0  0  0  0  0  0  0  0
   -0.5295    2.6736    0.0000 H   0  0  0  0  0  0  0  0  0  0  0  0
   -3.5631    2.3765    0.0000 H   0  0  0  0  0  0  0  0  0  0  0  0
   -4.2179   -0.6004    0.0000 H   0  0  0  0  0  0  0  0  0  0  0  0
   -1.2656   -2.0282    0.0000 H   0  0  0  0  0  0  0  0  0  0  0  0
   -4.2644   -1.9428    0.0000 H   0  0  0  0  0  0  0  0  0  0  0  0
   -4.1276   -4.1976    0.0000 H   0  0  0  0  0  0  0  0  0  0  0  0
   -5.5171    1.6017    0.0000 H   0  0  0  0  0  0  0  0  0  0  0  0
   -1.8702    4.2926    0.0000 H   0  0  0  0  0  0  0  0  0  0  0  0
    6.9717   -1.2946    0.0000 H   0  0  0  0  0  0  0  0  0  0  0  0
    4.9922   -2.9774    0.0000 H   0  0  0  0  0  0  0  0  0  0  0  0
  1  2  2  0
  1  9  1  0
  1 21  1  0
  2  3  1  0
  3  4  1  0
  3  8  2  0
  4  5  2  0
  4 20  1  0
  5  6  1  0
  6  7  2  0
  6 19  1  0
  7  8  1  0
  8  9  1  0
 10 11  1  0
 10 14  1  0
 10 22  1  1
 10  9  1  0
 11 12  1  0
 11 18  1  0
 11 23  1  6
 12 13  1  0
 12 17  1  0
 12 24  1  6
 13 14  1  0
 13 25  1  1
 13 15  1  0
 15 16  1  0
 15 26  1  0
 15 27  1  0
 16 28  1  0
 17 29  1  0
 18 30  1  0
 20 31  1  0
 20 32  1  0
M  END
$$$$

     RDKit          2D

 30 32  0  0  1  0  0  0  0  0999 V2000
    4.7872   -1.2809    0.0000 C   0  0  0  0  0  0  0  0  0  0  0  0
    3.2881   -1.3313    0.0000 C   0  0  0  0  0  0  0  0  0  0  0  0
    2.4949   -0.0582    0.0000 C   0  0  0  0  0  0  0  0  0  0  0  0
    3.2008    1.2653    0.0000 N   0  0  0  0  0  0  0  0  0  0  0  0
    4.7000    1.3157    0.0000 C   0  0  0  0  0  0  0  0  0  0  0  0
    5.4932    0.0426    0.0000 N   0  0  0  0  0  0  0  0  0  0  0  0
    1.0390   -0.4192    0.0000 N   0  0  0  0  0  0  0  0  0  0  0  0
    0.9324   -1.9154    0.0000 C   0  0  0  0  0  0  0  0  0  0  0  0
    2.3224   -2.4791    0.0000 N   0  0  0  0  0  0  0  0  0  0  0  0
   -0.1088    0.5465    0.0000 C   0  0  0  0  0  0  0  0  0  0  0  0
   -1.0308    1.7298    0.0000 C   0  0  0  0  0  0  0  0  0  0  0  0
   -2.4410    1.2186    0.0000 C   0  0  0  0  0  0  0  0  0  0  0  0
   -2.3906   -0.2806    0.0000 C   0  0  0  0  0  0  0  0  0  0  0  0
   -0.9493   -0.6959    0.0000 O   0  0  0  0  0  0  0  0  0  0  0  0
   -2.6530   -1.7574    0.0000 C   0  0  0  0  0  0  0  0  0  0  0  0
   -2.9154   -3.2343    0.0000 O   0  0  0  0  0  0  0  0  0  0  0  0
   -3.9267    1.0118    0.0000 O   0  0  0  0  0  0  0  0  0  0  0  0
   -1.6866    3.0788    0.0000 O   0  0  0  0  0  0  0  0  0  0  0  0
    5.5804   -2.5541    0.0000 H   0  0  0  0  0  0  0  0  0  0  0  0
    5.4059    2.6392    0.0000 H   0  0  0  0  0  0  0  0  0  0  0  0
   -0.3408   -2.7086    0.0000 H   0  0  0  0  0  0  0  0  0  0  0  0
    0.9715    1.5871    0.0000 H   0  0  0  0  0  0  0  0  0  0  0  0
    0.2423    2.5230    0.0000 H   0  0  0  0  0  0  0  0  0  0  0  0
   -2.8020    2.6745    0.0000 H   0  0  0  0  0  0  0  0  0  0  0  0
   -3.8868   -0.1740    0.0000 H   0  0  0  0  0  0  0  0  0  0  0  0
   -1.1762   -2.0198    0.0000 H   0  0  0  0  0  0  0  0  0  0  0  0
   -4.1299   -1.4950    0.0000 H   0  0  0  0  0  0  0  0  0  0  0  0
   -4.3257   -3.7455    0.0000 H   0  0  0  0  0  0  0  0  0  0  0  0
   -4.8486    2.1950    0.0000 H   0  0  0  0  0  0  0  0  0  0  0  0
   -0.8461    4.3213    0.0000 H   0  0  0  0  0  0  0  0  0  0  0  0
  1  2  2  0
  1  6  1  0
  1 19  1  0
  2  3  1  0
  2  9  1  0
  3  4  2  0
  3  7  1  0
  4  5  1  0
  5  6  2  0
  5 20  1  0
  7  8  1  0
  7 10  1  0
  8  9  2  0
  8 21  1  0
 10 11  1  0
 10 14  1  0
 10 22  1  1
 11 12  1  0
 11 18  1  0
 11 23  1  6
 12 13  1  0
 12 17  1  0
 12 24  1  6
 13 14  1  0
 13 25  1  1
 13 15  1  0
 15 16  1  0
 15 26  1  0
 15 27  1  0
 16 28  1  0
 17 29  1  0
 18 30  1  0
M  END
$$$$

     RDKit          2D

 53 55  0  0  0  0  0  0  0  0999 V2000
    0.1359   -3.2022    0.0000 C   0  0  0  0  0  0  0  0  0  0  0  0
    1.3065   -2.2643    0.0000 O   0  0  0  0  0  0  0  0  0  0  0  0
    1.0796   -0.7816    0.0000 C   0  0  0  0  0  0  0  0  0  0  0  0
   -0.3179   -0.2367    0.0000 C   0  0  0  0  0  0  0  0  0  0  0  0
   -0.5448    1.2460    0.0000 C   0  0  0  0  0  0  0  0  0  0  0  0
    0.6258    2.1839    0.0000 C   0  0  0  0  0  0  0  0  0  0  0  0
    2.0233    1.6391    0.0000 C   0  0  0  0  0  0  0  0  0  0  0  0
    2.2503    0.1563    0.0000 C   0  0  0  0  0  0  0  0  0  0  0  0
    3.1940    2.5769    0.0000 C   0  0  0  0  0  0  0  0  0  0  0  0
    4.5915    2.0321    0.0000 C   0  0  0  0  0  0  0  0  0  0  0  0
    4.8184    0.5493    0.0000 C   0  0  0  0  0  0  0  0  0  0  0  0
    5.0453   -0.9334    0.0000 N   0  0  0  0  0  0  0  0  0  0  0  0
    5.7622    2.9700    0.0000 C   0  0  0  0  0  0  0  0  0  0  0  0
    5.5352    4.4527    0.0000 O   0  0  0  0  0  0  0  0  0  0  0  0
    7.1597    2.4251    0.0000 N   0  0  0  0  0  0  0  0  0  0  0  0
    7.3866    0.9424    0.0000 C   0  0  0  0  0  0  0  0  0  0  0  0
    8.7195    0.2544    0.0000 N   0  0  0  0  0  0  0  0  0  0  0  0
    8.4772   -1.2259    0.0000 N   0  0  0  0  0  0  0  0  0  0  0  0
    6.9944   -1.4528    0.0000 C   0  0  0  0  0  0  0  0  0  0  0  0
    6.3204   -0.1127    0.0000 S   0  0  0  0  0  0  0  0  0  0  0  0
    6.3065   -2.7857    0.0000 C   0  0  0  0  0  0  0  0  0  0  0  0
    5.6185   -4.1187    0.0000 F   0  0  0  0  0  0  0  0  0  0  0  0
    7.6394   -3.4737    0.0000 F   0  0  0  0  0  0  0  0  0  0  0  0
    4.9735   -2.0978    0.0000 F   0  0  0  0  0  0  0  0  0  0  0  0
   -1.4886   -1.1746    0.0000 O   0  0  0  0  0  0  0  0  0  0  0  0
   -2.8861   -0.6297    0.0000 C   0  0  0  0  0  0  0  0  0  0  0  0
   -4.2836   -0.0849    0.0000 C   0  0  0  0  0  0  0  0  0  0  0  0
   -5.4543   -1.0227    0.0000 C   0  0  0  0  0  0  0  0  0  0  0  0
   -6.8518   -0.4779    0.0000 C   0  0  0  0  0  0  0  0  0  0  0  0
   -7.0787    1.0049    0.0000 C   0  0  0  0  0  0  0  0  0  0  0  0
   -5.9081    1.9427    0.0000 C   0  0  0  0  0  0  0  0  0  0  0  0
   -4.5106    1.3979    0.0000 C   0  0  0  0  0  0  0  0  0  0  0  0
   -8.4763    1.5497    0.0000 C   0  0  0  0  0  0  0  0  0  0  0  0
   -9.8738    2.0946    0.0000 F   0  0  0  0  0  0  0  0  0  0  0  0
   -7.9314    2.9473    0.0000 F   0  0  0  0  0  0  0  0  0  0  0  0
   -9.0211    0.1522    0.0000 F   0  0  0  0  0  0  0  0  0  0  0  0
   -5.2274   -2.5055    0.0000 C   0  0  0  0  0  0  0  0  0  0  0  0
   -5.0005   -3.9882    0.0000 F   0  0  0  0  0  0  0  0  0  0  0  0
   -6.7101   -2.7324    0.0000 F   0  0  0  0  0  0  0  0  0  0  0  0
   -4.0129   -2.4695    0.0000 F   0  0  0  0  0  0  0  0  0  0  0  0
    1.0738   -4.3728    0.0000 H   0  0  0  0  0  0  0  0  0  0  0  0
   -0.8020   -2.0315    0.0000 H   0  0  0  0  0  0  0  0  0  0  0  0
   -1.0347   -4.1401    0.0000 H   0  0  0  0  0  0  0  0  0  0  0  0
   -1.9424    1.7909    0.0000 H   0  0  0  0  0  0  0  0  0  0  0  0
    0.3989    3.6667    0.0000 H   0  0  0  0  0  0  0  0  0  0  0  0
    3.6478   -0.3885    0.0000 H   0  0  0  0  0  0  0  0  0  0  0  0
    2.9671    4.0597    0.0000 H   0  0  0  0  0  0  0  0  0  0  0  0
    8.3303    3.3630    0.0000 H   0  0  0  0  0  0  0  0  0  0  0  0
   -2.3412    0.7678    0.0000 H   0  0  0  0  0  0  0  0  0  0  0  0
   -3.1862   -1.8071    0.0000 H   0  0  0  0  0  0  0  0  0  0  0  0
   -8.0225   -1.4158    0.0000 H   0  0  0  0  0  0  0  0  0  0  0  0
   -6.1350    3.4255    0.0000 H   0  0  0  0  0  0  0  0  0  0  0  0
   -3.3399    2.3358    0.0000 H   0  0  0  0  0  0  0  0  0  0  0  0
  1  2  1  0
  1 41  1  0
  1 42  1  0
  1 43  1  0
  2  3  1  0
  3  4  2  0
  3  8  1  0
  4  5  1  0
  4 25  1  0
  5  6  2  0
  5 44  1  0
  6  7  1  0
  6 45  1  0
  7  8  2  0
  7  9  1  0
  8 46  1  0
  9 10  2  0
  9 47  1  0
 10 11  1  0
 10 13  1  0
 11 12  3  0
 13 14  2  0
 13 15  1  0
 15 16  1  0
 15 48  1  0
 16 17  2  0
 16 20  1  0
 17 18  1  0
 18 19  2  0
 19 20  1  0
 19 21  1  0
 21 22  1  0
 21 23  1  0
 21 24  1  0
 25 26  1  0
 26 27  1  0
 26 49  1  0
 26 50  1  0
 27 28  2  0
 27 32  1  0
 28 29  1  0
 28 37  1  0
 29 30  2  0
 29 51  1  0
 30 31  1  0
 30 33  1  0
 31 32  2  0
 31 52  1  0
 32 53  1  0
 33 34  1  0
 33 35  1  0
 33 36  1  0
 37 38  1  0
 37 39  1  0
 37 40  1  0
M  END
$$$$

     RDKit          2D

 42 43  0  0  0  0  0  0  0  0999 V2000
   -3.8243   -3.0437    0.0000 C   0  0  0  0  0  0  0  0  0  0  0  0
   -3.1516   -1.7030    0.0000 O   0  0  0  0  0  0  0  0  0  0  0  0
   -3.9764   -0.4501    0.0000 C   0  0  0  0  0  0  0  0  0  0  0  0
   -5.4738   -0.5380    0.0000 C   0  0  0  0  0  0  0  0  0  0  0  0
   -6.2986    0.7149    0.0000 C   0  0  0  0  0  0  0  0  0  0  0  0
   -5.6259    2.0557    0.0000 C   0  0  0  0  0  0  0  0  0  0  0  0
   -4.1285    2.1435    0.0000 C   0  0  0  0  0  0  0  0  0  0  0  0
   -3.3037    0.8906    0.0000 C   0  0  0  0  0  0  0  0  0  0  0  0
   -1.8063    0.9784    0.0000 C   0  0  0  0  0  0  0  0  0  0  0  0
   -1.1337    2.3192    0.0000 O   0  0  0  0  0  0  0  0  0  0  0  0
   -0.9815   -0.2745    0.0000 O   0  0  0  0  0  0  0  0  0  0  0  0
    0.5159   -0.1866    0.0000 C   0  0  0  0  0  0  0  0  0  0  0  0
    2.0133   -0.0988    0.0000 C   0  0  0  0  0  0  0  0  0  0  0  0
    3.5107   -0.0110    0.0000 N   0  0  0  0  0  0  0  0  0  0  0  0
    4.1834    1.3298    0.0000 C   0  0  0  0  0  0  0  0  0  0  0  0
    5.6808    1.4176    0.0000 C   0  0  0  0  0  0  0  0  0  0  0  0
    6.5056    0.1647    0.0000 C   0  0  0  0  0  0  0  0  0  0  0  0
    5.8330   -1.1760    0.0000 C   0  0  0  0  0  0  0  0  0  0  0  0
    4.3355   -1.2638    0.0000 C   0  0  0  0  0  0  0  0  0  0  0  0
   -6.4507    3.3086    0.0000 Cl  0  0  0  0  0  0  0  0  0  0  0  0
   -7.7960    0.6271    0.0000 N   0  0  0  0  0  0  0  0  0  0  0  0
   -2.4835   -3.7164    0.0000 H   0  0  0  0  0  0  0  0  0  0  0  0
   -5.1650   -2.3711    0.0000 H   0  0  0  0  0  0  0  0  0  0  0  0
   -4.4969   -4.3845    0.0000 H   0  0  0  0  0  0  0  0  0  0  0  0
   -6.1465   -1.8787    0.0000 H   0  0  0  0  0  0  0  0  0  0  0  0
   -3.4559    3.4842    0.0000 H   0  0  0  0  0  0  0  0  0  0  0  0
    0.6037   -1.6840    0.0000 H   0  0  0  0  0  0  0  0  0  0  0  0
    0.4281    1.3108    0.0000 H   0  0  0  0  0  0  0  0  0  0  0  0
    1.9180   -1.5958    0.0000 H   0  0  0  0  0  0  0  0  0  0  0  0
    1.7436    1.3768    0.0000 H   0  0  0  0  0  0  0  0  0  0  0  0
    4.3569    2.8197    0.0000 H   0  0  0  0  0  0  0  0  0  0  0  0
    2.8093    1.9314    0.0000 H   0  0  0  0  0  0  0  0  0  0  0  0
    7.0579    2.0123    0.0000 H   0  0  0  0  0  0  0  0  0  0  0  0
    5.3343    2.8770    0.0000 H   0  0  0  0  0  0  0  0  0  0  0  0
    7.7092   -0.7305    0.0000 H   0  0  0  0  0  0  0  0  0  0  0  0
    7.5962    1.1945    0.0000 H   0  0  0  0  0  0  0  0  0  0  0  0
    5.6594   -2.6659    0.0000 H   0  0  0  0  0  0  0  0  0  0  0  0
    7.2701   -1.6056    0.0000 H   0  0  0  0  0  0  0  0  0  0  0  0
    3.0412   -2.0220    0.0000 H   0  0  0  0  0  0  0  0  0  0  0  0
    4.6821   -2.7233    0.0000 H   0  0  0  0  0  0  0  0  0  0  0  0
   -8.6208    1.8800    0.0000 H   0  0  0  0  0  0  0  0  0  0  0  0
   -8.4687   -0.7136    0.0000 H   0  0  0  0  0  0  0  0  0  0  0  0
  1  2  1  0
  1 22  1  0
  1 23  1  0
  1 24  1  0
  2  3  1  0
  3  4  2  0
  3  8  1  0
  4  5  1  0
  4 25  1  0
  5  6  2  0
  5 21  1  0
  6  7  1  0
  6 20  1  0
  7  8  2  0
  7 26  1  0
  8  9  1  0
  9 10  2  0
  9 11  1  0
 11 12  1  0
 12 13  1  0
 12 27  1  0
 12 28  1  0
 13 14  1  0
 13 29  1  0
 13 30  1  0
 14 15  1  0
 14 19  1  0
 15 16  1  0
 15 31  1  0
 15 32  1  0
 16 17  1  0
 16 33  1  0
 16 34  1  0
 17 18  1  0
 17 35  1  0
 17 36  1  0
 18 19  1  0
 18 37  1  0
 18 38  1  0
 19 39  1  0
 19 40  1  0
 21 41  1  0
 21 42  1  0
M  END
$$$$

     RDKit          2D

 43 46  0  0  0  0  0  0  0  0999 V2000
   -7.9447   -0.1604    0.0000 C   0  0  0  0  0  0  0  0  0  0  0  0
   -7.3914    1.2338    0.0000 C   0  0  0  0  0  0  0  0  0  0  0  0
   -5.9074    1.4519    0.0000 C   0  0  0  0  0  0  0  0  0  0  0  0
   -4.9765    0.2757    0.0000 C   0  0  0  0  0  0  0  0  0  0  0  0
   -5.5297   -1.1186    0.0000 C   0  0  0  0  0  0  0  0  0  0  0  0
   -7.0138   -1.3366    0.0000 C   0  0  0  0  0  0  0  0  0  0  0  0
   -3.4924    0.4937    0.0000 C   0  0  0  0  0  0  0  0  0  0  0  0
   -2.0084    0.7117    0.0000 C   0  0  0  0  0  0  0  0  0  0  0  0
   -0.5243    0.9298    0.0000 C   0  0  0  0  0  0  0  0  0  0  0  0
    0.9598    1.1478    0.0000 C   0  0  0  0  0  0  0  0  0  0  0  0
    2.4438    1.3659    0.0000 O   0  0  0  0  0  0  0  0  0  0  0  0
    3.3747    0.1897    0.0000 C   0  0  0  0  0  0  0  0  0  0  0  0
    4.8588    0.4077    0.0000 C   0  0  0  0  0  0  0  0  0  0  0  0
    5.4120    1.8020    0.0000 C   0  0  0  0  0  0  0  0  0  0  0  0
    6.8960    2.0200    0.0000 C   0  0  0  0  0  0  0  0  0  0  0  0
    7.8269    0.8438    0.0000 C   0  0  0  0  0  0  0  0  0  0  0  0
    9.3110    1.0618    0.0000 O   0  0  0  0  0  0  0  0  0  0  0  0
    7.2737   -0.5505    0.0000 O   0  0  0  0  0  0  0  0  0  0  0  0
    5.7896   -0.7685    0.0000 C   0  0  0  0  0  0  0  0  0  0  0  0
    5.2364   -2.1628    0.0000 C   0  0  0  0  0  0  0  0  0  0  0  0
    3.7523   -2.3808    0.0000 C   0  0  0  0  0  0  0  0  0  0  0  0
    2.8215   -1.2046    0.0000 C   0  0  0  0  0  0  0  0  0  0  0  0
    1.4152   -1.7264    0.0000 C   0  0  0  0  0  0  0  0  0  0  0  0
    1.4769   -3.2252    0.0000 C   0  0  0  0  0  0  0  0  0  0  0  0
    2.9213   -3.6296    0.0000 O   0  0  0  0  0  0  0  0  0  0  0  0
   -9.4287   -0.3785    0.0000 H   0  0  0  0  0  0  0  0  0  0  0  0
   -8.3223    2.4101    0.0000 H   0  0  0  0  0  0  0  0  0  0  0  0
   -5.3542    2.8461    0.0000 H   0  0  0  0  0  0  0  0  0  0  0  0
   -4.5989   -2.2948    0.0000 H   0  0  0  0  0  0  0  0  0  0  0  0
   -7.5670   -2.7309    0.0000 H   0  0  0  0  0  0  0  0  0  0  0  0
   -3.7105    1.9778    0.0000 H   0  0  0  0  0  0  0  0  0  0  0  0
   -3.2744   -0.9904    0.0000 H   0  0  0  0  0  0  0  0  0  0  0  0
   -2.2264    2.1958    0.0000 H   0  0  0  0  0  0  0  0  0  0  0  0
   -1.7903   -0.7723    0.0000 H   0  0  0  0  0  0  0  0  0  0  0  0
   -0.4924   -0.4198    0.0000 H   0  0  0  0  0  0  0  0  0  0  0  0
   -0.7424    2.4139    0.0000 H   0  0  0  0  0  0  0  0  0  0  0  0
    1.1778   -0.3362    0.0000 H   0  0  0  0  0  0  0  0  0  0  0  0
    0.7417    2.6319    0.0000 H   0  0  0  0  0  0  0  0  0  0  0  0
    4.4811    2.9782    0.0000 H   0  0  0  0  0  0  0  0  0  0  0  0
    7.4492    3.4143    0.0000 H   0  0  0  0  0  0  0  0  0  0  0  0
    6.1673   -3.3390    0.0000 H   0  0  0  0  0  0  0  0  0  0  0  0
    0.2085   -1.1211    0.0000 H   0  0  0  0  0  0  0  0  0  0  0  0
    0.3007   -4.1560    0.0000 H   0  0  0  0  0  0  0  0  0  0  0  0
  1  2  2  0
  1  6  1  0
  1 26  1  0
  2  3  1  0
  2 27  1  0
  3  4  2  0
  3 28  1  0
  4  5  1  0
  4  7  1  0
  5  6  2  0
  5 29  1  0
  6 30  1  0
  7  8  1  0
  7 31  1  0
  7 32  1  0
  8  9  1  0
  8 33  1  0
  8 34  1  0
  9 10  1  0
  9 35  1  0
  9 36  1  0
 10 11  1  0
 10 37  1  0
 10 38  1  0
 11 12  1  0
 12 13  2  0
 12 22  1  0
 13 14  1  0
 13 19  1  0
 14 15  2  0
 14 39  1  0
 15 16  1  0
 15 40  1  0
 16 17  2  0
 16 18  1  0
 18 19  1  0
 19 20  2  0
 20 21  1  0
 20 41  1  0
 21 22  2  0
 21 25  1  0
 22 23  1  0
 23 24  2  0
 23 42  1  0
 24 25  1  0
 24 43  1  0
M  END
$$$$

     RDKit          2D

 43 43  0  0  0  0  0  0  0  0999 V2000
   -0.4027   -2.7586    0.0000 C   0  0  0  0  0  0  0  0  0  0  0  0
   -1.6655   -1.9489    0.0000 C   0  0  0  0  0  0  0  0  0  0  0  0
   -2.9282   -1.1393    0.0000 C   0  0  0  0  0  0  0  0  0  0  0  0
   -2.4751   -3.2117    0.0000 C   0  0  0  0  0  0  0  0  0  0  0  0
   -0.8558   -0.6862    0.0000 C   0  0  0  0  0  0  0  0  0  0  0  0
   -1.5446    0.6463    0.0000 C   0  0  0  0  0  0  0  0  0  0  0  0
   -0.7349    1.9091    0.0000 C   0  0  0  0  0  0  0  0  0  0  0  0
    0.7634    1.8393    0.0000 C   0  0  0  0  0  0  0  0  0  0  0  0
    1.4522    0.5067    0.0000 C   0  0  0  0  0  0  0  0  0  0  0  0
    0.6425   -0.7560    0.0000 C   0  0  0  0  0  0  0  0  0  0  0  0
    1.3313   -2.0885    0.0000 O   0  0  0  0  0  0  0  0  0  0  0  0
    2.9506    0.4369    0.0000 C   0  0  0  0  0  0  0  0  0  0  0  0
    2.8808   -1.0614    0.0000 C   0  0  0  0  0  0  0  0  0  0  0  0
    3.0204    1.9353    0.0000 C   0  0  0  0  0  0  0  0  0  0  0  0
    4.4489    0.3671    0.0000 C   0  0  0  0  0  0  0  0  0  0  0  0
   -1.4237    3.2416    0.0000 C   0  0  0  0  0  0  0  0  0  0  0  0
   -2.9220    3.3114    0.0000 C   0  0  0  0  0  0  0  0  0  0  0  0
   -3.6108    4.6439    0.0000 C   0  0  0  0  0  0  0  0  0  0  0  0
   -4.2995    5.9765    0.0000 N   0  0  0  0  0  0  0  0  0  0  0  0
   -3.7317    2.0487    0.0000 C   0  0  0  0  0  0  0  0  0  0  0  0
   -4.5413    0.7859    0.0000 N   0  0  0  0  0  0  0  0  0  0  0  0
   -0.7864   -3.5569    0.0000 H   0  0  0  0  0  0  0  0  0  0  0  0
    0.3927   -2.0082    0.0000 H   0  0  0  0  0  0  0  0  0  0  0  0
    0.7519   -3.7161    0.0000 H   0  0  0  0  0  0  0  0  0  0  0  0
   -3.4936   -1.8211    0.0000 H   0  0  0  0  0  0  0  0  0  0  0  0
   -2.5394    0.0118    0.0000 H   0  0  0  0  0  0  0  0  0  0  0  0
   -4.1909   -0.3297    0.0000 H   0  0  0  0  0  0  0  0  0  0  0  0
   -3.2734   -2.8280    0.0000 H   0  0  0  0  0  0  0  0  0  0  0  0
   -1.7933   -3.7771    0.0000 H   0  0  0  0  0  0  0  0  0  0  0  0
   -3.2847   -4.4744    0.0000 H   0  0  0  0  0  0  0  0  0  0  0  0
   -2.7583    0.7029    0.0000 H   0  0  0  0  0  0  0  0  0  0  0  0
    1.5731    3.1020    0.0000 H   0  0  0  0  0  0  0  0  0  0  0  0
    0.6816   -3.4405    0.0000 H   0  0  0  0  0  0  0  0  0  0  0  0
    4.3595   -1.3134    0.0000 H   0  0  0  0  0  0  0  0  0  0  0  0
    1.4100   -1.3563    0.0000 H   0  0  0  0  0  0  0  0  0  0  0  0
    2.8110   -2.5598    0.0000 H   0  0  0  0  0  0  0  0  0  0  0  0
    4.5161    2.0487    0.0000 H   0  0  0  0  0  0  0  0  0  0  0  0
    1.5834    2.3656    0.0000 H   0  0  0  0  0  0  0  0  0  0  0  0
    3.0902    3.4337    0.0000 H   0  0  0  0  0  0  0  0  0  0  0  0
    4.7009    1.8458    0.0000 H   0  0  0  0  0  0  0  0  0  0  0  0
    4.5623   -1.1286    0.0000 H   0  0  0  0  0  0  0  0  0  0  0  0
    5.9473    0.2973    0.0000 H   0  0  0  0  0  0  0  0  0  0  0  0
   -0.6140    4.5043    0.0000 H   0  0  0  0  0  0  0  0  0  0  0  0
  1  2  1  0
  1 22  1  0
  1 23  1  0
  1 24  1  0
  2  3  1  0
  2  4  1  0
  2  5  1  0
  3 25  1  0
  3 26  1  0
  3 27  1  0
  4 28  1  0
  4 29  1  0
  4 30  1  0
  5  6  2  0
  5 10  1  0
  6  7  1  0
  6 31  1  0
  7  8  2  0
  7 16  1  0
  8  9  1  0
  8 32  1  0
  9 10  2  0
  9 12  1  0
 10 11  1  0
 11 33  1  0
 12 13  1  0
 12 14  1  0
 12 15  1  0
 13 34  1  0
 13 35  1  0
 13 36  1  0
 14 37  1  0
 14 38  1  0
 14 39  1  0
 15 40  1  0
 15 41  1  0
 15 42  1  0
 16 17  2  0
 16 43  1  0
 17 18  1  0
 17 20  1  0
 18 19  3  0
 20 21  3  0
M  END
$$$$

     RDKit          2D

 43 42  0  0  1  0  0  0  0  0999 V2000
    4.4170    0.1573    0.0000 C   0  0  0  0  0  0  0  0  0  0  0  0
    3.2782   -0.8190    0.0000 C   0  0  0  0  0  0  0  0  0  0  0  0
    2.3020    0.3198    0.0000 C   0  0  0  0  0  0  0  0  0  0  0  0
    1.3500   -0.8394    0.0000 C   0  0  0  0  0  0  0  0  0  0  0  0
   -0.1299   -0.5946    0.0000 C   0  0  0  0  0  0  0  0  0  0  0  0
   -0.6578    0.8095    0.0000 C   0  0  0  0  0  0  0  0  0  0  0  0
    0.2942    1.9687    0.0000 C   0  0  0  0  0  0  0  0  0  0  0  0
    1.7740    1.7239    0.0000 C   0  0  0  0  0  0  0  0  0  0  0  0
   -1.6341    1.9483    0.0000 C   0  0  0  0  0  0  0  0  0  0  0  0
   -1.3122    3.4133    0.0000 O   0  0  0  0  0  0  0  0  0  0  0  0
   -3.1085    1.6722    0.0000 N   0  0  0  0  0  0  0  0  0  0  0  0
   -3.6066    0.2573    0.0000 C   0  0  0  0  0  0  0  0  0  0  0  0
   -5.0809   -0.0188    0.0000 C   0  0  0  0  0  0  0  0  0  0  0  0
   -5.5790   -1.4337    0.0000 C   0  0  0  0  0  0  0  0  0  0  0  0
   -4.6027   -2.5725    0.0000 N   0  0  0  0  0  0  0  0  0  0  0  0
   -3.1284   -2.2964    0.0000 C   0  0  0  0  0  0  0  0  0  0  0  0
   -2.6303   -0.8815    0.0000 C   0  0  0  0  0  0  0  0  0  0  0  0
    4.2545   -1.9578    0.0000 N   0  0  0  0  0  0  0  0  0  0  0  0
   -0.7500    4.4133    0.0000 Cl  0  0  0  0  0  0  0  0  0  0  0  0
   -0.7500    5.4133    0.0000 Cl  0  0  0  0  0  0  0  0  0  0  0  0
    5.5249   -0.8540    0.0000 H   0  0  0  0  0  0  0  0  0  0  0  0
    4.0204    0.9493    0.0000 H   0  0  0  0  0  0  0  0  0  0  0  0
    5.5558    1.1336    0.0000 H   0  0  0  0  0  0  0  0  0  0  0  0
    2.7408   -1.4077    0.0000 H   0  0  0  0  0  0  0  0  0  0  0  0
    3.0036    0.8604    0.0000 H   0  0  0  0  0  0  0  0  0  0  0  0
    1.9917   -1.3124    0.0000 H   0  0  0  0  0  0  0  0  0  0  0  0
    0.8519   -2.2543    0.0000 H   0  0  0  0  0  0  0  0  0  0  0  0
   -0.1140   -2.0945    0.0000 H   0  0  0  0  0  0  0  0  0  0  0  0
   -1.6269   -0.6889    0.0000 H   0  0  0  0  0  0  0  0  0  0  0  0
   -1.9488    0.0458    0.0000 H   0  0  0  0  0  0  0  0  0  0  0  0
   -0.9133    2.8587    0.0000 H   0  0  0  0  0  0  0  0  0  0  0  0
    0.7922    3.3836    0.0000 H   0  0  0  0  0  0  0  0  0  0  0  0
    1.7582    3.2238    0.0000 H   0  0  0  0  0  0  0  0  0  0  0  0
    3.2038    2.1776    0.0000 H   0  0  0  0  0  0  0  0  0  0  0  0
   -4.0848    2.8110    0.0000 H   0  0  0  0  0  0  0  0  0  0  0  0
   -6.0572    1.1200    0.0000 H   0  0  0  0  0  0  0  0  0  0  0  0
   -7.0534   -1.7098    0.0000 H   0  0  0  0  0  0  0  0  0  0  0  0
   -2.1521   -3.4352    0.0000 H   0  0  0  0  0  0  0  0  0  0  0  0
   -1.2005   -0.4277    0.0000 H   0  0  0  0  0  0  0  0  0  0  0  0
    5.7516   -1.8635    0.0000 H   0  0  0  0  0  0  0  0  0  0  0  0
    3.7565   -3.3727    0.0000 H   0  0  0  0  0  0  0  0  0  0  0  0
    0.7500    4.4133    0.0000 H   0  0  0  0  0  0  0  0  0  0  0  0
    0.7500    5.4133    0.0000 H   0  0  0  0  0  0  0  0  0  0  0  0
  1 21  1  0
  1 22  1  0
  1 23  1  0
  2 18  1  0
  2 24  1  6
  2  3  1  0
  2  1  1  0
  3  4  1  0
  3  8  1  0
  3 25  1  6
  4  5  1  0
  4 26  1  0
  4 27  1  0
  5  6  1  0
  5 28  1  0
  5 29  1  0
  6  7  1  0
  6  9  1  0
  6 30  1  6
  7  8  1  0
  7 31  1  0
  7 32  1  0
  8 33  1  0
  8 34  1  0
  9 10  2  0
  9 11  1  0
 11 12  1  0
 11 35  1  0
 12 13  2  0
 12 17  1  0
 13 14  1  0
 13 36  1  0
 14 15  2  0
 14 37  1  0
 15 16  1  0
 16 17  2  0
 16 38  1  0
 17 39  1  0
 18 40  1  0
 18 41  1  0
 19 42  1  0
 20 43  1  0
M  END
$$$$

     RDKit          2D

 45 46  0  0  0  0  0  0  0  0999 V2000
   -6.0678    1.5102    0.0000 C   0  0  0  0  0  0  0  0  0  0  0  0
   -5.5813    0.0912    0.0000 C   0  0  0  0  0  0  0  0  0  0  0  0
   -4.1093   -0.1970    0.0000 C   0  0  0  0  0  0  0  0  0  0  0  0
   -2.6372   -0.4851    0.0000 N   0  0  0  0  0  0  0  0  0  0  0  0
   -2.2582   -1.9365    0.0000 C   0  0  0  0  0  0  0  0  0  0  0  0
   -0.8872   -2.5450    0.0000 C   0  0  0  0  0  0  0  0  0  0  0  0
    0.4434   -1.8525    0.0000 C   0  0  0  0  0  0  0  0  0  0  0  0
    1.5742   -2.8381    0.0000 C   0  0  0  0  0  0  0  0  0  0  0  0
    2.9931   -2.3517    0.0000 C   0  0  0  0  0  0  0  0  0  0  0  0
    3.2813   -0.8796    0.0000 C   0  0  0  0  0  0  0  0  0  0  0  0
    2.1505    0.1060    0.0000 C   0  0  0  0  0  0  0  0  0  0  0  0
    0.7316   -0.3804    0.0000 C   0  0  0  0  0  0  0  0  0  0  0  0
   -0.2396    0.7627    0.0000 C   0  0  0  0  0  0  0  0  0  0  0  0
   -1.7389    0.7161    0.0000 C   0  0  0  0  0  0  0  0  0  0  0  0
    1.0910    1.4552    0.0000 C   0  0  0  0  0  0  0  0  0  0  0  0
    2.3560    0.6491    0.0000 C   0  0  0  0  0  0  0  0  0  0  0  0
    3.6866    1.3416    0.0000 C   0  0  0  0  0  0  0  0  0  0  0  0
    3.7521    2.8402    0.0000 C   0  0  0  0  0  0  0  0  0  0  0  0
    2.4871    3.6462    0.0000 C   0  0  0  0  0  0  0  0  0  0  0  0
    1.1566    2.9538    0.0000 C   0  0  0  0  0  0  0  0  0  0  0  0
    4.7002   -0.3931    0.0000 O   0  0  0  0  0  0  0  0  0  0  0  0
    4.1238   -3.3373    0.0000 O   0  0  0  0  0  0  0  0  0  0  0  0
   -0.7500    6.1448    0.0000 Br  0  0  0  0  0  0  0  0  0  0  0  0
   -7.5398    1.7984    0.0000 H   0  0  0  0  0  0  0  0  0  0  0  0
   -5.0822    2.6409    0.0000 H   0  0  0  0  0  0  0  0  0  0  0  0
   -6.5669   -1.0395    0.0000 H   0  0  0  0  0  0  0  0  0  0  0  0
   -4.0027    1.2993    0.0000 H   0  0  0  0  0  0  0  0  0  0  0  0
   -4.5748   -1.6229    0.0000 H   0  0  0  0  0  0  0  0  0  0  0  0
   -2.7237   -3.3624    0.0000 H   0  0  0  0  0  0  0  0  0  0  0  0
   -3.7406   -2.1655    0.0000 H   0  0  0  0  0  0  0  0  0  0  0  0
    0.0841   -3.6881    0.0000 H   0  0  0  0  0  0  0  0  0  0  0  0
   -1.6324   -3.8468    0.0000 H   0  0  0  0  0  0  0  0  0  0  0  0
    1.2860   -4.3102    0.0000 H   0  0  0  0  0  0  0  0  0  0  0  0
    2.4387    1.5781    0.0000 H   0  0  0  0  0  0  0  0  0  0  0  0
   -0.4389    2.2494    0.0000 H   0  0  0  0  0  0  0  0  0  0  0  0
   -3.0255    1.4872    0.0000 H   0  0  0  0  0  0  0  0  0  0  0  0
   -1.6323    2.2123    0.0000 H   0  0  0  0  0  0  0  0  0  0  0  0
    2.2904   -0.8495    0.0000 H   0  0  0  0  0  0  0  0  0  0  0  0
    4.9516    0.5355    0.0000 H   0  0  0  0  0  0  0  0  0  0  0  0
    5.0827    3.5327    0.0000 H   0  0  0  0  0  0  0  0  0  0  0  0
    2.5527    5.1448    0.0000 H   0  0  0  0  0  0  0  0  0  0  0  0
   -0.1085    3.7598    0.0000 H   0  0  0  0  0  0  0  0  0  0  0  0
    5.8310   -1.3788    0.0000 H   0  0  0  0  0  0  0  0  0  0  0  0
    5.5428   -2.8508    0.0000 H   0  0  0  0  0  0  0  0  0  0  0  0
    0.7500    6.1448    0.0000 H   0  0  0  0  0  0  0  0  0  0  0  0
  1  2  2  0
  1 24  1  0
  1 25  1  0
  2  3  1  0
  2 26  1  0
  3  4  1  0
  3 27  1  0
  3 28  1  0
  4  5  1  0
  4 14  1  0
  5  6  1  0
  5 29  1  0
  5 30  1  0
  6  7  1  0
  6 31  1  0
  6 32  1  0
  7  8  2  0
  7 12  1  0
  8  9  1  0
  8 33  1  0
  9 10  2  0
  9 22  1  0
 10 11  1  0
 10 21  1  0
 11 12  2  0
 11 34  1  0
 12 13  1  0
 13 14  1  0
 13 15  1  0
 13 35  1  1
 14 36  1  0
 14 37  1  0
 15 16  2  0
 15 20  1  0
 16 17  1  0
 16 38  1  0
 17 18  2  0
 17 39  1  0
 18 19  1  0
 18 40  1  0
 19 20  2  0
 19 41  1  0
 20 42  1  0
 21 43  1  0
 22 44  1  0
 23 45  1  0
M  END
$$$$

     RDKit          2D

109114  0  0  1  0  0  0  0  0999 V2000
   -2.0283   -2.9613    0.0000 C   0  0  0  0  0  0  0  0  0  0  0  0
   -0.8088   -2.0880    0.0000 C   0  0  0  0  0  0  0  0  0  0  0  0
   -0.6622   -3.5808    0.0000 C   0  0  0  0  0  0  0  0  0  0  0  0
    0.6359   -1.6844    0.0000 C   0  0  0  0  0  0  0  0  0  0  0  0
    1.7077   -2.7338    0.0000 N   0  0  0  0  0  0  0  0  0  0  0  0
    3.1524   -2.3302    0.0000 C   0  0  0  0  0  0  0  0  0  0  0  0
    4.2243   -3.3796    0.0000 C   0  0  0  0  0  0  0  0  0  0  0  0
    5.6690   -2.9760    0.0000 C   0  0  0  0  0  0  0  0  0  0  0  0
    6.0418   -1.5231    0.0000 C   0  0  0  0  0  0  0  0  0  0  0  0
    4.9700   -0.4737    0.0000 C   0  0  0  0  0  0  0  0  0  0  0  0
    3.5253   -0.8773    0.0000 C   0  0  0  0  0  0  0  0  0  0  0  0
    2.4535    0.1721    0.0000 C   0  0  0  0  0  0  0  0  0  0  0  0
    1.0088   -0.2315    0.0000 C   0  0  0  0  0  0  0  0  0  0  0  0
   -0.0631    0.8179    0.0000 C   0  0  0  0  0  0  0  0  0  0  0  0
   -1.5078    0.4143    0.0000 C   0  0  0  0  0  0  0  0  0  0  0  0
   -2.5796    1.4637    0.0000 C   0  0  0  0  0  0  0  0  0  0  0  0
   -3.6514    2.5131    0.0000 O   0  0  0  0  0  0  0  0  0  0  0  0
   -3.6290    0.3919    0.0000 C   0  0  0  0  0  0  0  0  0  0  0  0
   -4.6783   -0.6800    0.0000 C   0  0  0  0  0  0  0  0  0  0  0  0
   -3.6065   -1.7293    0.0000 O   0  0  0  0  0  0  0  0  0  0  0  0
   -5.7502    0.3694    0.0000 C   0  0  0  0  0  0  0  0  0  0  0  0
   -6.8220    1.4188    0.0000 C   0  0  0  0  0  0  0  0  0  0  0  0
   -6.4491    2.8717    0.0000 O   0  0  0  0  0  0  0  0  0  0  0  0
   -8.2667    1.0152    0.0000 O   0  0  0  0  0  0  0  0  0  0  0  0
    2.8263    1.6250    0.0000 C   0  0  0  0  0  0  0  0  0  0  0  0
    4.2710    2.0285    0.0000 C   0  0  0  0  0  0  0  0  0  0  0  0
    4.6439    3.4815    0.0000 C   0  0  0  0  0  0  0  0  0  0  0  0
    3.5720    4.5308    0.0000 C   0  0  0  0  0  0  0  0  0  0  0  0
    2.1274    4.1273    0.0000 C   0  0  0  0  0  0  0  0  0  0  0  0
    1.7545    2.6744    0.0000 C   0  0  0  0  0  0  0  0  0  0  0  0
    3.9449    5.9837    0.0000 F   0  0  0  0  0  0  0  0  0  0  0  0
   -2.0283    9.0562    0.0000 C   0  0  0  0  0  0  0  0  0  0  0  0
   -0.8088    9.9295    0.0000 C   0  0  0  0  0  0  0  0  0  0  0  0
   -0.6622    8.4367    0.0000 C   0  0  0  0  0  0  0  0  0  0  0  0
    0.6359   10.3330    0.0000 C   0  0  0  0  0  0  0  0  0  0  0  0
    1.7077    9.2837    0.0000 N   0  0  0  0  0  0  0  0  0  0  0  0
    3.1524    9.6872    0.0000 C   0  0  0  0  0  0  0  0  0  0  0  0
    4.2243    8.6379    0.0000 C   0  0  0  0  0  0  0  0  0  0  0  0
    5.6690    9.0414    0.0000 C   0  0  0  0  0  0  0  0  0  0  0  0
    6.0418   10.4943    0.0000 C   0  0  0  0  0  0  0  0  0  0  0  0
    4.9700   11.5437    0.0000 C   0  0  0  0  0  0  0  0  0  0  0  0
    3.5253   11.1402    0.0000 C   0  0  0  0  0  0  0  0  0  0  0  0
    2.4535   12.1895    0.0000 C   0  0  0  0  0  0  0  0  0  0  0  0
    1.0088   11.7860    0.0000 C   0  0  0  0  0  0  0  0  0  0  0  0
   -0.0631   12.8353    0.0000 C   0  0  0  0  0  0  0  0  0  0  0  0
   -1.5078   12.4318    0.0000 C   0  0  0  0  0  0  0  0  0  0  0  0
   -2.5796   13.4811    0.0000 C   0  0  0  0  0  0  0  0  0  0  0  0
   -3.6514   14.5305    0.0000 O   0  0  0  0  0  0  0  0  0  0  0  0
   -3.6290   12.4093    0.0000 C   0  0  0  0  0  0  0  0  0  0  0  0
   -4.6783   11.3375    0.0000 C   0  0  0  0  0  0  0  0  0  0  0  0
   -3.6065   10.2881    0.0000 O   0  0  0  0  0  0  0  0  0  0  0  0
   -5.7502   12.3868    0.0000 C   0  0  0  0  0  0  0  0  0  0  0  0
   -6.8220   13.4362    0.0000 C   0  0  0  0  0  0  0  0  0  0  0  0
   -6.4491   14.8891    0.0000 O   0  0  0  0  0  0  0  0  0  0  0  0
   -8.2667   13.0327    0.0000 O   0  0  0  0  0  0  0  0  0  0  0  0
    2.8263   13.6424    0.0000 C   0  0  0  0  0  0  0  0  0  0  0  0
    4.2710   14.0460    0.0000 C   0  0  0  0  0  0  0  0  0  0  0  0
    4.6439   15.4989    0.0000 C   0  0  0  0  0  0  0  0  0  0  0  0
    3.5720   16.5483    0.0000 C   0  0  0  0  0  0  0  0  0  0  0  0
    2.1274   16.1447    0.0000 C   0  0  0  0  0  0  0  0  0  0  0  0
    1.7545   14.6918    0.0000 C   0  0  0  0  0  0  0  0  0  0  0  0
    3.9449   18.0012    0.0000 F   0  0  0  0  0  0  0  0  0  0  0  0
    8.4865    0.0000    0.0000 Ca  0  0  0  0  0 15  0  0  0  0  0  0
   -2.6650   -1.9265    0.0000 H   0  0  0  0  0  0  0  0  0  0  0  0
   -2.8756   -4.1991    0.0000 H   0  0  0  0  0  0  0  0  0  0  0  0
   -1.2861   -1.3418    0.0000 H   0  0  0  0  0  0  0  0  0  0  0  0
   -1.0351   -5.0337    0.0000 H   0  0  0  0  0  0  0  0  0  0  0  0
    0.8334   -3.6957    0.0000 H   0  0  0  0  0  0  0  0  0  0  0  0
    3.8514   -4.8325    0.0000 H   0  0  0  0  0  0  0  0  0  0  0  0
    6.7408   -4.0254    0.0000 H   0  0  0  0  0  0  0  0  0  0  0  0
    7.4865   -1.1196    0.0000 H   0  0  0  0  0  0  0  0  0  0  0  0
    5.3689    0.5444    0.0000 H   0  0  0  0  0  0  0  0  0  0  0  0
    0.1299    2.3054    0.0000 H   0  0  0  0  0  0  0  0  0  0  0  0
   -1.7279   -0.4436    0.0000 H   0  0  0  0  0  0  0  0  0  0  0  0
   -1.5302    2.5355    0.0000 H   0  0  0  0  0  0  0  0  0  0  0  0
   -3.2786    3.9660    0.0000 H   0  0  0  0  0  0  0  0  0  0  0  0
   -4.1816    1.0840    0.0000 H   0  0  0  0  0  0  0  0  0  0  0  0
   -2.6930   -0.7803    0.0000 H   0  0  0  0  0  0  0  0  0  0  0  0
   -5.7277   -1.7518    0.0000 H   0  0  0  0  0  0  0  0  0  0  0  0
   -3.9793   -3.1823    0.0000 H   0  0  0  0  0  0  0  0  0  0  0  0
   -5.2123    1.0731    0.0000 H   0  0  0  0  0  0  0  0  0  0  0  0
   -6.7995   -0.7024    0.0000 H   0  0  0  0  0  0  0  0  0  0  0  0
    5.1398    1.3645    0.0000 H   0  0  0  0  0  0  0  0  0  0  0  0
    6.0886    3.8850    0.0000 H   0  0  0  0  0  0  0  0  0  0  0  0
    1.0555    5.1766    0.0000 H   0  0  0  0  0  0  0  0  0  0  0  0
    0.2714    2.4499    0.0000 H   0  0  0  0  0  0  0  0  0  0  0  0
   -2.6650   10.0910    0.0000 H   0  0  0  0  0  0  0  0  0  0  0  0
   -2.8756    7.8184    0.0000 H   0  0  0  0  0  0  0  0  0  0  0  0
   -1.2861   10.6756    0.0000 H   0  0  0  0  0  0  0  0  0  0  0  0
   -1.0351    6.9837    0.0000 H   0  0  0  0  0  0  0  0  0  0  0  0
    0.8334    8.3218    0.0000 H   0  0  0  0  0  0  0  0  0  0  0  0
    3.8514    7.1849    0.0000 H   0  0  0  0  0  0  0  0  0  0  0  0
    6.7408    7.9921    0.0000 H   0  0  0  0  0  0  0  0  0  0  0  0
    7.4865   10.8979    0.0000 H   0  0  0  0  0  0  0  0  0  0  0  0
    5.3689   12.5619    0.0000 H   0  0  0  0  0  0  0  0  0  0  0  0
    0.1299   14.3229    0.0000 H   0  0  0  0  0  0  0  0  0  0  0  0
   -1.7279   11.5738    0.0000 H   0  0  0  0  0  0  0  0  0  0  0  0
   -1.5302   14.5530    0.0000 H   0  0  0  0  0  0  0  0  0  0  0  0
   -3.2786   15.9834    0.0000 H   0  0  0  0  0  0  0  0  0  0  0  0
   -4.1816   13.1015    0.0000 H   0  0  0  0  0  0  0  0  0  0  0  0
   -2.6930   11.2371    0.0000 H   0  0  0  0  0  0  0  0  0  0  0  0
   -5.7277   10.2656    0.0000 H   0  0  0  0  0  0  0  0  0  0  0  0
   -3.9793    8.8352    0.0000 H   0  0  0  0  0  0  0  0  0  0  0  0
   -5.2123   13.0906    0.0000 H   0  0  0  0  0  0  0  0  0  0  0  0
   -6.7995   11.3150    0.0000 H   0  0  0  0  0  0  0  0  0  0  0  0
    5.1398   13.3820    0.0000 H   0  0  0  0  0  0  0  0  0  0  0  0
    6.0886   15.9025    0.0000 H   0  0  0  0  0  0  0  0  0  0  0  0
    1.0555   17.1941    0.0000 H   0  0  0  0  0  0  0  0  0  0  0  0
    0.2714   14.4674    0.0000 H   0  0  0  0  0  0  0  0  0  0  0  0
  1  2  1  0
  1  3  1  0
  1 64  1  0
  1 65  1  0
  2  3  1  0
  2  4  1  0
  2 66  1  0
  3 67  1  0
  3 68  1  0
  4  5  2  0
  4 13  1  0
  5  6  1  0
  6  7  2  0
  6 11  1  0
  7  8  1  0
  7 69  1  0
  8  9  2  0
  8 70  1  0
  9 10  1  0
  9 71  1  0
 10 11  2  0
 10 72  1  0
 11 12  1  0
 12 13  2  0
 12 25  1  0
 13 14  1  0
 14 15  2  0
 14 73  1  0
 15 16  1  0
 15 74  1  0
 16 17  1  0
 16 18  1  0
 16 75  1  1
 17 76  1  0
 18 19  1  0
 18 77  1  0
 18 78  1  0
 19 20  1  0
 19 21  1  0
 19 79  1  6
 20 80  1  0
 21 22  1  0
 21 81  1  0
 21 82  1  0
 22 23  2  0
 22 24  1  0
 25 26  2  0
 25 30  1  0
 26 27  1  0
 26 83  1  0
 27 28  2  0
 27 84  1  0
 28 29  1  0
 28 31  1  0
 29 30  2  0
 29 85  1  0
 30 86  1  0
 32 33  1  0
 32 34  1  0
 32 87  1  0
 32 88  1  0
 33 34  1  0
 33 35  1  0
 33 89  1  0
 34 90  1  0
 34 91  1  0
 35 36  2  0
 35 44  1  0
 36 37  1  0
 37 38  2  0
 37 42  1  0
 38 39  1  0
 38 92  1  0
 39 40  2  0
 39 93  1  0
 40 41  1  0
 40 94  1  0
 41 42  2  0
 41 95  1  0
 42 43  1  0
 43 44  2  0
 43 56  1  0
 44 45  1  0
 45 46  2  0
 45 96  1  0
 46 47  1  0
 46 97  1  0
 47 48  1  0
 47 49  1  0
 47 98  1  1
 48 99  1  0
 49 50  1  0
 49100  1  0
 49101  1  0
 50 51  1  0
 50 52  1  0
 50102  1  6
 51103  1  0
 52 53  1  0
 52104  1  0
 52105  1  0
 53 54  2  0
 53 55  1  0
 56 57  2  0
 56 61  1  0
 57 58  1  0
 57106  1  0
 58 59  2  0
 58107  1  0
 59 60  1  0
 59 62  1  0
 60 61  2  0
 60108  1  0
 61109  1  0
M  CHG  3  24  -1  55  -1  63   2
M  END
$$$$

     RDKit          2D

 49 51  0  0  0  0  0  0  0  0999 V2000
    5.5713   -0.0333    0.0000 C   0  0  0  0  0  0  0  0  0  0  0  0
    4.8103   -1.3259    0.0000 C   0  0  0  0  0  0  0  0  0  0  0  0
    3.3103   -1.3132    0.0000 C   0  0  0  0  0  0  0  0  0  0  0  0
    2.5714   -0.0078    0.0000 C   0  0  0  0  0  0  0  0  0  0  0  0
    3.3324    1.2848    0.0000 C   0  0  0  0  0  0  0  0  0  0  0  0
    4.8324    1.2721    0.0000 C   0  0  0  0  0  0  0  0  0  0  0  0
    1.0715    0.0050    0.0000 C   0  0  0  0  0  0  0  0  0  0  0  0
   -0.4285    0.0177    0.0000 P   0  0  0  0  0  0  0  0  0  0  0  0
   -1.9284    0.0305    0.0000 C   0  0  0  0  0  0  0  0  0  0  0  0
   -2.6673    1.3358    0.0000 C   0  0  0  0  0  0  0  0  0  0  0  0
   -4.1673    1.3486    0.0000 C   0  0  0  0  0  0  0  0  0  0  0  0
   -4.9283    0.0560    0.0000 C   0  0  0  0  0  0  0  0  0  0  0  0
   -4.1894   -1.2494    0.0000 C   0  0  0  0  0  0  0  0  0  0  0  0
   -2.6894   -1.2621    0.0000 C   0  0  0  0  0  0  0  0  0  0  0  0
   -0.4412   -1.4822    0.0000 C   0  0  0  0  0  0  0  0  0  0  0  0
   -1.7466   -2.2211    0.0000 C   0  0  0  0  0  0  0  0  0  0  0  0
   -1.7594   -3.7211    0.0000 C   0  0  0  0  0  0  0  0  0  0  0  0
   -0.4667   -4.4821    0.0000 C   0  0  0  0  0  0  0  0  0  0  0  0
    0.8386   -3.7432    0.0000 C   0  0  0  0  0  0  0  0  0  0  0  0
    0.8514   -2.2432    0.0000 C   0  0  0  0  0  0  0  0  0  0  0  0
   -0.4157    1.5177    0.0000 C   0  0  0  0  0  0  0  0  0  0  0  0
    0.8897    2.2566    0.0000 C   0  0  0  0  0  0  0  0  0  0  0  0
    0.9024    3.7565    0.0000 C   0  0  0  0  0  0  0  0  0  0  0  0
   -0.3902    4.5176    0.0000 C   0  0  0  0  0  0  0  0  0  0  0  0
   -1.6956    3.7786    0.0000 C   0  0  0  0  0  0  0  0  0  0  0  0
   -1.7083    2.2787    0.0000 C   0  0  0  0  0  0  0  0  0  0  0  0
    0.0000    7.0175    0.0000 Cl  0  0  0  0  0  0  0  0  0  0  0  0
    7.0713   -0.0461    0.0000 H   0  0  0  0  0  0  0  0  0  0  0  0
    5.5492   -2.6313    0.0000 H   0  0  0  0  0  0  0  0  0  0  0  0
    2.5493   -2.6058    0.0000 H   0  0  0  0  0  0  0  0  0  0  0  0
    2.5935    2.5902    0.0000 H   0  0  0  0  0  0  0  0  0  0  0  0
    5.5934    2.5647    0.0000 H   0  0  0  0  0  0  0  0  0  0  0  0
    1.4220   -1.4535    0.0000 H   0  0  0  0  0  0  0  0  0  0  0  0
    1.4468    1.4572    0.0000 H   0  0  0  0  0  0  0  0  0  0  0  0
   -2.4411    2.1002    0.0000 H   0  0  0  0  0  0  0  0  0  0  0  0
   -4.9062    2.6540    0.0000 H   0  0  0  0  0  0  0  0  0  0  0  0
   -6.4283    0.0688    0.0000 H   0  0  0  0  0  0  0  0  0  0  0  0
   -4.9504   -2.5420    0.0000 H   0  0  0  0  0  0  0  0  0  0  0  0
   -2.2883   -2.7075    0.0000 H   0  0  0  0  0  0  0  0  0  0  0  0
   -3.1849   -1.7955    0.0000 H   0  0  0  0  0  0  0  0  0  0  0  0
   -3.0647   -4.4600    0.0000 H   0  0  0  0  0  0  0  0  0  0  0  0
   -0.4795   -5.9821    0.0000 H   0  0  0  0  0  0  0  0  0  0  0  0
    2.1312   -4.5042    0.0000 H   0  0  0  0  0  0  0  0  0  0  0  0
    2.1568   -1.5043    0.0000 H   0  0  0  0  0  0  0  0  0  0  0  0
    2.1823    1.4956    0.0000 H   0  0  0  0  0  0  0  0  0  0  0  0
    2.2078    4.4955    0.0000 H   0  0  0  0  0  0  0  0  0  0  0  0
   -0.3774    6.0175    0.0000 H   0  0  0  0  0  0  0  0  0  0  0  0
   -2.9882    4.5397    0.0000 H   0  0  0  0  0  0  0  0  0  0  0  0
   -3.1537    1.8776    0.0000 H   0  0  0  0  0  0  0  0  0  0  0  0
  1  2  2  0
  1  6  1  0
  1 28  1  0
  2  3  1  0
  2 29  1  0
  3  4  2  0
  3 30  1  0
  4  5  1  0
  4  7  1  0
  5  6  2  0
  5 31  1  0
  6 32  1  0
  7  8  1  0
  7 33  1  0
  7 34  1  0
  8  9  1  0
  8 15  1  0
  8 21  1  0
  9 10  2  0
  9 14  1  0
 10 11  1  0
 10 35  1  0
 11 12  2  0
 11 36  1  0
 12 13  1  0
 12 37  1  0
 13 14  2  0
 13 38  1  0
 14 39  1  0
 15 16  2  0
 15 20  1  0
 16 17  1  0
 16 40  1  0
 17 18  2  0
 17 41  1  0
 18 19  1  0
 18 42  1  0
 19 20  2  0
 19 43  1  0
 20 44  1  0
 21 22  2  0
 21 26  1  0
 22 23  1  0
 22 45  1  0
 23 24  2  0
 23 46  1  0
 24 25  1  0
 24 47  1  0
 25 26  2  0
 25 48  1  0
 26 49  1  0
M  CHG  2   8   1  27  -1
M  END
$$$$

     RDKit          2D

 67 67  0  0  1  0  0  0  0  0999 V2000
   -0.7779   -3.2488    0.0000 C   0  0  0  0  0  0  0  0  0  0  0  0
   -1.3672   -1.8694    0.0000 C   0  0  0  0  0  0  0  0  0  0  0  0
   -2.7466   -2.4587    0.0000 C   0  0  0  0  0  0  0  0  0  0  0  0
    0.0122   -1.2801    0.0000 C   0  0  0  0  0  0  0  0  0  0  0  0
    0.1915    0.2091    0.0000 C   0  0  0  0  0  0  0  0  0  0  0  0
    1.5709    0.7984    0.0000 C   0  0  0  0  0  0  0  0  0  0  0  0
    2.7710   -0.1015    0.0000 C   0  0  0  0  0  0  0  0  0  0  0  0
    2.5916   -1.5908    0.0000 C   0  0  0  0  0  0  0  0  0  0  0  0
    1.2122   -2.1801    0.0000 N   0  0  0  0  0  0  0  0  0  0  0  0
    3.7917   -2.4907    0.0000 C   0  0  0  0  0  0  0  0  0  0  0  0
    4.6916   -1.2907    0.0000 C   0  0  0  0  0  0  0  0  0  0  0  0
    4.9917   -3.3907    0.0000 C   0  0  0  0  0  0  0  0  0  0  0  0
    4.1504    0.4878    0.0000 C   0  0  0  0  0  0  0  0  0  0  0  0
    5.5298    1.0770    0.0000 O   0  0  0  0  0  0  0  0  0  0  0  0
    6.7298    0.1771    0.0000 C   0  0  0  0  0  0  0  0  0  0  0  0
    1.7503    2.2877    0.0000 C   0  0  0  0  0  0  0  0  0  0  0  0
    3.1297    2.8769    0.0000 C   0  0  0  0  0  0  0  0  0  0  0  0
    3.3091    4.3662    0.0000 C   0  0  0  0  0  0  0  0  0  0  0  0
    2.1090    5.2661    0.0000 C   0  0  0  0  0  0  0  0  0  0  0  0
    0.7296    4.6768    0.0000 C   0  0  0  0  0  0  0  0  0  0  0  0
    0.5503    3.1876    0.0000 C   0  0  0  0  0  0  0  0  0  0  0  0
    2.2884    6.7554    0.0000 F   0  0  0  0  0  0  0  0  0  0  0  0
   -1.0085    1.1091    0.0000 C   0  0  0  0  0  0  0  0  0  0  0  0
   -2.3879    0.5198    0.0000 C   0  0  0  0  0  0  0  0  0  0  0  0
   -3.5879    1.4198    0.0000 C   0  0  0  0  0  0  0  0  0  0  0  0
   -4.4879    0.2197    0.0000 C   0  0  0  0  0  0  0  0  0  0  0  0
   -5.3878   -0.9803    0.0000 C   0  0  0  0  0  0  0  0  0  0  0  0
   -6.5879   -0.0804    0.0000 C   0  0  0  0  0  0  0  0  0  0  0  0
   -7.7879    0.8196    0.0000 C   0  0  0  0  0  0  0  0  0  0  0  0
   -7.6085    2.3088    0.0000 O   0  0  0  0  0  0  0  0  0  0  0  0
   -9.1673    0.2303    0.0000 O   0  0  0  0  0  0  0  0  0  0  0  0
   -4.1878   -1.8803    0.0000 O   0  0  0  0  0  0  0  0  0  0  0  0
   -4.7880    2.3197    0.0000 O   0  0  0  0  0  0  0  0  0  0  0  0
    0.0000    7.7554    0.0000 Na  0  0  0  0  0 15  0  0  0  0  0  0
   -1.5440   -3.6934    0.0000 H   0  0  0  0  0  0  0  0  0  0  0  0
    0.7031   -3.0108    0.0000 H   0  0  0  0  0  0  0  0  0  0  0  0
   -0.1887   -4.6282    0.0000 H   0  0  0  0  0  0  0  0  0  0  0  0
   -2.1203   -0.5721    0.0000 H   0  0  0  0  0  0  0  0  0  0  0  0
   -3.4997   -1.1614    0.0000 H   0  0  0  0  0  0  0  0  0  0  0  0
   -2.5005   -3.3095    0.0000 H   0  0  0  0  0  0  0  0  0  0  0  0
   -4.0439   -3.2117    0.0000 H   0  0  0  0  0  0  0  0  0  0  0  0
    2.8917   -3.6908    0.0000 H   0  0  0  0  0  0  0  0  0  0  0  0
    5.4597   -1.7318    0.0000 H   0  0  0  0  0  0  0  0  0  0  0  0
    3.9249   -0.3482    0.0000 H   0  0  0  0  0  0  0  0  0  0  0  0
    5.5016   -0.2107    0.0000 H   0  0  0  0  0  0  0  0  0  0  0  0
    4.0917   -4.5907    0.0000 H   0  0  0  0  0  0  0  0  0  0  0  0
    5.6055   -2.7521    0.0000 H   0  0  0  0  0  0  0  0  0  0  0  0
    6.1917   -4.2906    0.0000 H   0  0  0  0  0  0  0  0  0  0  0  0
    3.7336    1.9287    0.0000 H   0  0  0  0  0  0  0  0  0  0  0  0
    4.8105   -0.3840    0.0000 H   0  0  0  0  0  0  0  0  0  0  0  0
    7.6298    1.3771    0.0000 H   0  0  0  0  0  0  0  0  0  0  0  0
    5.8299   -1.0230    0.0000 H   0  0  0  0  0  0  0  0  0  0  0  0
    7.9299   -0.7229    0.0000 H   0  0  0  0  0  0  0  0  0  0  0  0
    4.4305    2.1300    0.0000 H   0  0  0  0  0  0  0  0  0  0  0  0
    4.6885    4.9555    0.0000 H   0  0  0  0  0  0  0  0  0  0  0  0
   -0.4704    5.5768    0.0000 H   0  0  0  0  0  0  0  0  0  0  0  0
   -0.8907    2.7709    0.0000 H   0  0  0  0  0  0  0  0  0  0  0  0
   -1.0120    2.6091    0.0000 H   0  0  0  0  0  0  0  0  0  0  0  0
   -2.9223   -0.8818    0.0000 H   0  0  0  0  0  0  0  0  0  0  0  0
   -2.6880    2.6198    0.0000 H   0  0  0  0  0  0  0  0  0  0  0  0
   -5.5693    1.2592    0.0000 H   0  0  0  0  0  0  0  0  0  0  0  0
   -5.7887    0.9667    0.0000 H   0  0  0  0  0  0  0  0  0  0  0  0
   -6.2878   -2.1803    0.0000 H   0  0  0  0  0  0  0  0  0  0  0  0
   -7.6274   -1.1617    0.0000 H   0  0  0  0  0  0  0  0  0  0  0  0
   -7.3348   -1.3811    0.0000 H   0  0  0  0  0  0  0  0  0  0  0  0
   -4.5474   -3.3365    0.0000 H   0  0  0  0  0  0  0  0  0  0  0  0
   -4.6086    3.8089    0.0000 H   0  0  0  0  0  0  0  0  0  0  0  0
  1  2  1  0
  1 35  1  0
  1 36  1  0
  1 37  1  0
  2  3  1  0
  2  4  1  0
  2 38  1  0
  3 39  1  0
  3 40  1  0
  3 41  1  0
  4  5  2  0
  4  9  1  0
  5  6  1  0
  5 23  1  0
  6  7  2  0
  6 16  1  0
  7  8  1  0
  7 13  1  0
  8  9  2  0
  8 10  1  0
 10 11  1  0
 10 12  1  0
 10 42  1  0
 11 43  1  0
 11 44  1  0
 11 45  1  0
 12 46  1  0
 12 47  1  0
 12 48  1  0
 13 14  1  0
 13 49  1  0
 13 50  1  0
 14 15  1  0
 15 51  1  0
 15 52  1  0
 15 53  1  0
 16 17  2  0
 16 21  1  0
 17 18  1  0
 17 54  1  0
 18 19  2  0
 18 55  1  0
 19 20  1  0
 19 22  1  0
 20 21  2  0
 20 56  1  0
 21 57  1  0
 23 24  2  0
 23 58  1  0
 24 59  1  0
 25 33  1  0
 25 60  1  1
 25 26  1  0
 25 24  1  0
 26 61  1  0
 26 62  1  0
 27 32  1  0
 27 63  1  6
 27 28  1  0
 27 26  1  0
 28 29  1  0
 28 64  1  0
 28 65  1  0
 29 30  2  0
 29 31  1  0
 32 66  1  0
 33 67  1  0
M  CHG  2  31  -1  34   1
M  END
$$$$

     RDKit          2D

 13 12  0  0  0  0  0  0  0  0999 V2000
    1.5000    0.0000    0.0000 C   0  0  0  0  0  0  0  0  0  0  0  0
    0.7500   -1.2990    0.0000 C   0  0  0  0  0  0  0  0  0  0  0  0
   -0.7500   -1.2990    0.0000 C   0  0  0  0  0  0  0  0  0  0  0  0
   -1.5000    0.0000    0.0000 C   0  0  0  0  0  0  0  0  0  0  0  0
   -0.7500    1.2990    0.0000 C   0  0  0  0  0  0  0  0  0  0  0  0
    0.7500    1.2990    0.0000 C   0  0  0  0  0  0  0  0  0  0  0  0
    1.5000    2.5981    0.0000 Cl  0  0  0  0  0  0  0  0  0  0  0  0
   -1.5000    2.5981    0.0000 Cl  0  0  0  0  0  0  0  0  0  0  0  0
   -3.0000    0.0000    0.0000 Cl  0  0  0  0  0  0  0  0  0  0  0  0
   -1.5000   -2.5981    0.0000 Cl  0  0  0  0  0  0  0  0  0  0  0  0
    1.5000   -2.5981    0.0000 Cl  0  0  0  0  0  0  0  0  0  0  0  0
    3.0000    0.0000    0.0000 O   0  0  0  0  0  0  0  0  0  0  0  0
    0.0000    3.5981    0.0000 Na  0  0  0  0  0 15  0  0  0  0  0  0
  1  2  2  0
  1  6  1  0
  1 12  1  0
  2  3  1  0
  2 11  1  0
  3  4  2  0
  3 10  1  0
  4  5  1  0
  4  9  1  0
  5  6  2  0
  5  8  1  0
  6  7  1  0
M  CHG  2  12  -1  13   1
M  END
$$$$

     RDKit          2D

 36 36  0  0  0  0  0  0  0  0999 V2000
   -3.0264   -1.5261    0.0000 C   0  0  0  0  0  0  0  0  0  0  0  0
   -3.0300   -0.0261    0.0000 C   0  0  0  0  0  0  0  0  0  0  0  0
   -3.0335    1.4739    0.0000 C   0  0  0  0  0  0  0  0  0  0  0  0
   -4.5299   -0.0296    0.0000 C   0  0  0  0  0  0  0  0  0  0  0  0
   -1.5300   -0.0225    0.0000 C   0  0  0  0  0  0  0  0  0  0  0  0
   -0.7830    1.2783    0.0000 C   0  0  0  0  0  0  0  0  0  0  0  0
    0.7170    1.2818    0.0000 C   0  0  0  0  0  0  0  0  0  0  0  0
    1.4639    2.5826    0.0000 O   0  0  0  0  0  0  0  0  0  0  0  0
    1.4700   -0.0154    0.0000 C   0  0  0  0  0  0  0  0  0  0  0  0
    0.7231   -1.3162    0.0000 C   0  0  0  0  0  0  0  0  0  0  0  0
   -0.7769   -1.3198    0.0000 C   0  0  0  0  0  0  0  0  0  0  0  0
   -1.2179   -2.0879    0.0000 O   0  0  0  0  0  0  0  0  0  0  0  0
    2.9700   -0.0119    0.0000 C   0  0  0  0  0  0  0  0  0  0  0  0
    2.9665    1.4881    0.0000 C   0  0  0  0  0  0  0  0  0  0  0  0
    2.9736   -1.5119    0.0000 C   0  0  0  0  0  0  0  0  0  0  0  0
    4.4700   -0.0083    0.0000 C   0  0  0  0  0  0  0  0  0  0  0  0
   -3.9053   -1.6361    0.0000 H   0  0  0  0  0  0  0  0  0  0  0  0
   -2.1665   -1.7384    0.0000 H   0  0  0  0  0  0  0  0  0  0  0  0
   -3.0229   -3.0261    0.0000 H   0  0  0  0  0  0  0  0  0  0  0  0
   -3.9129    1.5798    0.0000 H   0  0  0  0  0  0  0  0  0  0  0  0
   -1.5789    1.8403    0.0000 H   0  0  0  0  0  0  0  0  0  0  0  0
   -3.0370    2.9739    0.0000 H   0  0  0  0  0  0  0  0  0  0  0  0
   -4.6400    0.8493    0.0000 H   0  0  0  0  0  0  0  0  0  0  0  0
   -4.6358   -0.9090    0.0000 H   0  0  0  0  0  0  0  0  0  0  0  0
   -6.0299   -0.0332    0.0000 H   0  0  0  0  0  0  0  0  0  0  0  0
   -1.5361    2.5755    0.0000 H   0  0  0  0  0  0  0  0  0  0  0  0
    1.4762   -2.6135    0.0000 H   0  0  0  0  0  0  0  0  0  0  0  0
    4.4549    1.6745    0.0000 H   0  0  0  0  0  0  0  0  0  0  0  0
    1.5102    1.8476    0.0000 H   0  0  0  0  0  0  0  0  0  0  0  0
    2.9629    2.9881    0.0000 H   0  0  0  0  0  0  0  0  0  0  0  0
    4.4628   -1.6912    0.0000 H   0  0  0  0  0  0  0  0  0  0  0  0
    1.5190   -1.8783    0.0000 H   0  0  0  0  0  0  0  0  0  0  0  0
    2.9771   -3.0119    0.0000 H   0  0  0  0  0  0  0  0  0  0  0  0
    4.6564   -1.4967    0.0000 H   0  0  0  0  0  0  0  0  0  0  0  0
    4.6493    1.4809    0.0000 H   0  0  0  0  0  0  0  0  0  0  0  0
    5.9700   -0.0048    0.0000 H   0  0  0  0  0  0  0  0  0  0  0  0
  1  2  1  0
  1 17  1  0
  1 18  1  0
  1 19  1  0
  2  3  1  0
  2  4  1  0
  2  5  1  0
  3 20  1  0
  3 21  1  0
  3 22  1  0
  4 23  1  0
  4 24  1  0
  4 25  1  0
  5  6  2  0
  5 11  1  0
  6  7  1  0
  6 26  1  0
  7  8  2  0
  7  9  1  0
  9 10  2  0
  9 13  1  0
 10 11  1  0
 10 27  1  0
 11 12  2  0
 13 14  1  0
 13 15  1  0
 13 16  1  0
 14 28  1  0
 14 29  1  0
 14 30  1  0
 15 31  1  0
 15 32  1  0
 15 33  1  0
 16 34  1  0
 16 35  1  0
 16 36  1  0
M  END
$$$$

     RDKit          2D

 30 30  0  0  0  0  0  0  0  0999 V2000
    2.5488   -2.1009    0.0000 C   0  0  0  0  0  0  0  0  0  0  0  0
    1.5410   -0.9899    0.0000 C   0  0  0  0  0  0  0  0  0  0  0  0
    0.0750   -1.3072    0.0000 C   0  0  0  0  0  0  0  0  0  0  0  0
   -0.9329   -0.1962    0.0000 C   0  0  0  0  0  0  0  0  0  0  0  0
   -0.4746    1.2321    0.0000 C   0  0  0  0  0  0  0  0  0  0  0  0
    0.9914    1.5494    0.0000 C   0  0  0  0  0  0  0  0  0  0  0  0
    1.9993    0.4384    0.0000 C   0  0  0  0  0  0  0  0  0  0  0  0
    3.4653    0.7557    0.0000 S   0  0  0  0  0  0  0  0  0  0  0  0
    4.4731   -0.3553    0.0000 C   0  0  0  0  0  0  0  0  0  0  0  0
    1.4497    2.9777    0.0000 C   0  0  0  0  0  0  0  0  0  0  0  0
   -2.3989   -0.5134    0.0000 O   0  0  0  0  0  0  0  0  0  0  0  0
   -3.4067    0.5975    0.0000 C   0  0  0  0  0  0  0  0  0  0  0  0
   -2.9485    2.0258    0.0000 O   0  0  0  0  0  0  0  0  0  0  0  0
   -4.8728    0.2803    0.0000 N   0  0  0  0  0  0  0  0  0  0  0  0
   -5.3310   -1.1480    0.0000 C   0  0  0  0  0  0  0  0  0  0  0  0
    1.4378   -3.1087    0.0000 H   0  0  0  0  0  0  0  0  0  0  0  0
    3.2001   -1.6412    0.0000 H   0  0  0  0  0  0  0  0  0  0  0  0
    3.5566   -3.2119    0.0000 H   0  0  0  0  0  0  0  0  0  0  0  0
   -0.3833   -2.7354    0.0000 H   0  0  0  0  0  0  0  0  0  0  0  0
   -1.4824    2.3431    0.0000 H   0  0  0  0  0  0  0  0  0  0  0  0
    3.9524   -0.9588    0.0000 H   0  0  0  0  0  0  0  0  0  0  0  0
    5.5841    0.6525    0.0000 H   0  0  0  0  0  0  0  0  0  0  0  0
    5.4809   -1.4663    0.0000 H   0  0  0  0  0  0  0  0  0  0  0  0
    2.8780    2.5195    0.0000 H   0  0  0  0  0  0  0  0  0  0  0  0
    0.0214    3.4360    0.0000 H   0  0  0  0  0  0  0  0  0  0  0  0
    1.9079    4.4060    0.0000 H   0  0  0  0  0  0  0  0  0  0  0  0
   -5.8806    1.3913    0.0000 H   0  0  0  0  0  0  0  0  0  0  0  0
   -6.7593   -0.6898    0.0000 H   0  0  0  0  0  0  0  0  0  0  0  0
   -3.9027   -1.6063    0.0000 H   0  0  0  0  0  0  0  0  0  0  0  0
   -5.7893   -2.5763    0.0000 H   0  0  0  0  0  0  0  0  0  0  0  0
  1  2  1  0
  1 16  1  0
  1 17  1  0
  1 18  1  0
  2  3  2  0
  2  7  1  0
  3  4  1  0
  3 19  1  0
  4  5  2  0
  4 11  1  0
  5  6  1  0
  5 20  1  0
  6  7  2  0
  6 10  1  0
  7  8  1  0
  8  9  1  0
  9 21  1  0
  9 22  1  0
  9 23  1  0
 10 24  1  0
 10 25  1  0
 10 26  1  0
 11 12  1  0
 12 13  2  0
 12 14  1  0
 14 15  1  0
 14 27  1  0
 15 28  1  0
 15 29  1  0
 15 30  1  0
M  END
$$$$

     RDKit          2D

 20 20  0  0  0  0  0  0  0  0999 V2000
    0.3604   -2.4601    0.0000 C   0  0  0  0  0  0  0  0  0  0  0  0
    0.5382   -0.9707    0.0000 C   0  0  0  0  0  0  0  0  0  0  0  0
   -0.6627   -0.0719    0.0000 C   0  0  0  0  0  0  0  0  0  0  0  0
   -0.4849    1.4175    0.0000 C   0  0  0  0  0  0  0  0  0  0  0  0
    0.8939    2.0082    0.0000 C   0  0  0  0  0  0  0  0  0  0  0  0
    2.0949    1.1095    0.0000 C   0  0  0  0  0  0  0  0  0  0  0  0
    1.9170   -0.3800    0.0000 C   0  0  0  0  0  0  0  0  0  0  0  0
    3.4737    1.7002    0.0000 O   0  0  0  0  0  0  0  0  0  0  0  0
   -2.0415   -0.6626    0.0000 S   0  0  0  0  0  0  0  0  0  0  0  0
   -3.2425    0.2361    0.0000 C   0  0  0  0  0  0  0  0  0  0  0  0
   -1.1290   -2.2822    0.0000 H   0  0  0  0  0  0  0  0  0  0  0  0
    1.8498   -2.6379    0.0000 H   0  0  0  0  0  0  0  0  0  0  0  0
    0.1826   -3.9495    0.0000 H   0  0  0  0  0  0  0  0  0  0  0  0
   -1.6859    2.3162    0.0000 H   0  0  0  0  0  0  0  0  0  0  0  0
    1.0717    3.4976    0.0000 H   0  0  0  0  0  0  0  0  0  0  0  0
    3.1180   -1.2787    0.0000 H   0  0  0  0  0  0  0  0  0  0  0  0
    4.6746    0.8015    0.0000 H   0  0  0  0  0  0  0  0  0  0  0  0
   -4.1412   -0.9649    0.0000 H   0  0  0  0  0  0  0  0  0  0  0  0
   -2.3438    1.4370    0.0000 H   0  0  0  0  0  0  0  0  0  0  0  0
   -4.4434    1.1348    0.0000 H   0  0  0  0  0  0  0  0  0  0  0  0
  1  2  1  0
  1 11  1  0
  1 12  1  0
  1 13  1  0
  2  3  2  0
  2  7  1  0
  3  4  1  0
  3  9  1  0
  4  5  2  0
  4 14  1  0
  5  6  1  0
  5 15  1  0
  6  7  2  0
  6  8  1  0
  7 16  1  0
  8 17  1  0
  9 10  1  0
 10 18  1  0
 10 19  1  0
 10 20  1  0
M  END
$$$$

     RDKit          2D

 21 23  0  0  0  0  0  0  0  0999 V2000
    3.8252   -0.8136    0.0000 C   0  0  0  0  0  0  0  0  0  0  0  0
    2.4483   -0.2187    0.0000 C   0  0  0  0  0  0  0  0  0  0  0  0
    1.2446   -1.1137    0.0000 C   0  0  0  0  0  0  0  0  0  0  0  0
   -0.1324   -0.5188    0.0000 C   0  0  0  0  0  0  0  0  0  0  0  0
   -0.3057    0.9712    0.0000 C   0  0  0  0  0  0  0  0  0  0  0  0
    0.8980    1.8662    0.0000 C   0  0  0  0  0  0  0  0  0  0  0  0
    2.2750    1.2713    0.0000 C   0  0  0  0  0  0  0  0  0  0  0  0
   -1.6827    1.5661    0.0000 N   0  0  0  0  0  0  0  0  0  0  0  0
   -2.8864    0.6711    0.0000 C   0  0  0  0  0  0  0  0  0  0  0  0
   -2.7131   -0.8189    0.0000 C   0  0  0  0  0  0  0  0  0  0  0  0
   -1.3361   -1.4138    0.0000 N   0  0  0  0  0  0  0  0  0  0  0  0
   -4.0766   -1.4441    0.0000 S   0  0  0  0  0  0  0  0  0  0  0  0
   -5.0926   -0.3405    0.0000 C   0  0  0  0  0  0  0  0  0  0  0  0
   -6.5825   -0.5138    0.0000 O   0  0  0  0  0  0  0  0  0  0  0  0
   -4.3570    0.9667    0.0000 S   0  0  0  0  0  0  0  0  0  0  0  0
    3.2303   -2.1906    0.0000 H   0  0  0  0  0  0  0  0  0  0  0  0
    4.4202    0.5634    0.0000 H   0  0  0  0  0  0  0  0  0  0  0  0
    5.2022   -1.4085    0.0000 H   0  0  0  0  0  0  0  0  0  0  0  0
    1.4178   -2.6037    0.0000 H   0  0  0  0  0  0  0  0  0  0  0  0
    0.7247    3.3562    0.0000 H   0  0  0  0  0  0  0  0  0  0  0  0
    3.4787    2.1663    0.0000 H   0  0  0  0  0  0  0  0  0  0  0  0
  1  2  1  0
  1 16  1  0
  1 17  1  0
  1 18  1  0
  2  3  2  0
  2  7  1  0
  3  4  1  0
  3 19  1  0
  4  5  2  0
  4 11  1  0
  5  6  1  0
  5  8  1  0
  6  7  2  0
  6 20  1  0
  7 21  1  0
  8  9  2  0
  9 10  1  0
  9 15  1  0
 10 11  2  0
 10 12  1  0
 12 13  1  0
 13 14  2  0
 13 15  1  0
M  END
$$$$

     RDKit          2D

 50 52  0  0  1  0  0  0  0  0999 V2000
   -5.1876   -1.7334    0.0000 C   0  0  0  0  0  0  0  0  0  0  0  0
   -3.8895   -0.9818    0.0000 C   0  0  0  0  0  0  0  0  0  0  0  0
   -4.4042    0.4271    0.0000 C   0  0  0  0  0  0  0  0  0  0  0  0
   -2.9267    0.1684    0.0000 C   0  0  0  0  0  0  0  0  0  0  0  0
   -1.6267   -0.5800    0.0000 C   0  0  0  0  0  0  0  0  0  0  0  0
   -1.6249   -2.0800    0.0000 O   0  0  0  0  0  0  0  0  0  0  0  0
   -0.3286    0.1716    0.0000 O   0  0  0  0  0  0  0  0  0  0  0  0
    0.9713   -0.5769    0.0000 C   0  0  0  0  0  0  0  0  0  0  0  0
    2.2713   -1.3253    0.0000 C   0  0  0  0  0  0  0  0  0  0  0  0
    3.5712   -2.0737    0.0000 N   0  0  0  0  0  0  0  0  0  0  0  0
    1.7198    0.7231    0.0000 C   0  0  0  0  0  0  0  0  0  0  0  0
    3.2198    0.7249    0.0000 C   0  0  0  0  0  0  0  0  0  0  0  0
    3.9682    2.0248    0.0000 C   0  0  0  0  0  0  0  0  0  0  0  0
    3.2166    3.3230    0.0000 C   0  0  0  0  0  0  0  0  0  0  0  0
    1.7166    3.3212    0.0000 C   0  0  0  0  0  0  0  0  0  0  0  0
    0.9682    2.0212    0.0000 C   0  0  0  0  0  0  0  0  0  0  0  0
    5.4682    2.0266    0.0000 O   0  0  0  0  0  0  0  0  0  0  0  0
    6.2198    0.7285    0.0000 C   0  0  0  0  0  0  0  0  0  0  0  0
    5.4713   -0.5714    0.0000 C   0  0  0  0  0  0  0  0  0  0  0  0
    6.2229   -1.8696    0.0000 C   0  0  0  0  0  0  0  0  0  0  0  0
    7.7229   -1.8677    0.0000 C   0  0  0  0  0  0  0  0  0  0  0  0
    8.4713   -0.5678    0.0000 C   0  0  0  0  0  0  0  0  0  0  0  0
    7.7198    0.7303    0.0000 C   0  0  0  0  0  0  0  0  0  0  0  0
   -5.8811    0.1649    0.0000 C   0  0  0  0  0  0  0  0  0  0  0  0
   -6.8467    1.3128    0.0000 C   0  0  0  0  0  0  0  0  0  0  0  0
   -8.3236    1.0505    0.0000 C   0  0  0  0  0  0  0  0  0  0  0  0
   -9.8005    0.7882    0.0000 F   0  0  0  0  0  0  0  0  0  0  0  0
   -8.5858    2.5274    0.0000 F   0  0  0  0  0  0  0  0  0  0  0  0
   -8.0613   -0.4264    0.0000 F   0  0  0  0  0  0  0  0  0  0  0  0
   -6.3354    2.7229    0.0000 Cl  0  0  0  0  0  0  0  0  0  0  0  0
   -2.9239   -2.1297    0.0000 C   0  0  0  0  0  0  0  0  0  0  0  0
   -4.5999   -3.1134    0.0000 H   0  0  0  0  0  0  0  0  0  0  0  0
   -5.7421   -1.1606    0.0000 H   0  0  0  0  0  0  0  0  0  0  0  0
   -6.4857   -2.4849    0.0000 H   0  0  0  0  0  0  0  0  0  0  0  0
   -4.4060    1.9271    0.0000 H   0  0  0  0  0  0  0  0  0  0  0  0
   -2.4154    1.5786    0.0000 H   0  0  0  0  0  0  0  0  0  0  0  0
    0.2229   -1.8768    0.0000 H   0  0  0  0  0  0  0  0  0  0  0  0
    3.6054   -0.1806    0.0000 H   0  0  0  0  0  0  0  0  0  0  0  0
    3.9650    4.6229    0.0000 H   0  0  0  0  0  0  0  0  0  0  0  0
    0.9651    4.6193    0.0000 H   0  0  0  0  0  0  0  0  0  0  0  0
   -0.5318    2.0194    0.0000 H   0  0  0  0  0  0  0  0  0  0  0  0
    4.4947   -0.6926    0.0000 H   0  0  0  0  0  0  0  0  0  0  0  0
    5.4745   -3.1695    0.0000 H   0  0  0  0  0  0  0  0  0  0  0  0
    8.4745   -3.1659    0.0000 H   0  0  0  0  0  0  0  0  0  0  0  0
    9.9713   -0.5660    0.0000 H   0  0  0  0  0  0  0  0  0  0  0  0
    8.4682    2.0303    0.0000 H   0  0  0  0  0  0  0  0  0  0  0  0
   -6.1528   -0.5846    0.0000 H   0  0  0  0  0  0  0  0  0  0  0  0
   -3.9455   -3.2280    0.0000 H   0  0  0  0  0  0  0  0  0  0  0  0
   -1.5765   -1.4706    0.0000 H   0  0  0  0  0  0  0  0  0  0  0  0
   -1.9583   -3.2776    0.0000 H   0  0  0  0  0  0  0  0  0  0  0  0
  1  2  1  0
  1 32  1  0
  1 33  1  0
  1 34  1  0
  2  3  1  0
  2  4  1  0
  2 31  1  0
  3  4  1  0
  3 35  1  6
  3 24  1  0
  4  5  1  0
  4 36  1  6
  5  6  2  0
  5  7  1  0
  8 11  1  0
  8 37  1  6
  8  9  1  0
  8  7  1  0
  9 10  3  0
 11 12  2  0
 11 16  1  0
 12 13  1  0
 12 38  1  0
 13 14  2  0
 13 17  1  0
 14 15  1  0
 14 39  1  0
 15 16  2  0
 15 40  1  0
 16 41  1  0
 17 18  1  0
 18 19  2  0
 18 23  1  0
 19 20  1  0
 19 42  1  0
 20 21  2  0
 20 43  1  0
 21 22  1  0
 21 44  1  0
 22 23  2  0
 22 45  1  0
 23 46  1  0
 24 25  2  0
 24 47  1  0
 25 26  1  0
 25 30  1  0
 26 27  1  0
 26 28  1  0
 26 29  1  0
 31 48  1  0
 31 49  1  0
 31 50  1  0
M  END
$$$$

     RDKit          2D

 13 13  0  0  0  0  0  0  0  0999 V2000
   -0.5888   -1.4730    0.0000 C   0  0  0  0  0  0  0  0  0  0  0  0
   -1.7226   -0.4910    0.0000 C   0  0  0  0  0  0  0  0  0  0  0  0
   -1.4392    0.9820    0.0000 C   0  0  0  0  0  0  0  0  0  0  0  0
   -0.0218    1.4730    0.0000 C   0  0  0  0  0  0  0  0  0  0  0  0
    1.1121    0.4910    0.0000 C   0  0  0  0  0  0  0  0  0  0  0  0
    0.8286   -0.9820    0.0000 C   0  0  0  0  0  0  0  0  0  0  0  0
    1.9625   -1.9640    0.0000 I   0  0  0  0  0  0  0  0  0  0  0  0
    2.5295    0.9820    0.0000 O   0  0  0  0  0  0  0  0  0  0  0  0
    0.2617    2.9459    0.0000 I   0  0  0  0  0  0  0  0  0  0  0  0
   -3.1400   -0.9820    0.0000 I   0  0  0  0  0  0  0  0  0  0  0  0
   -0.8722   -2.9459    0.0000 H   0  0  0  0  0  0  0  0  0  0  0  0
   -2.5731    1.9640    0.0000 H   0  0  0  0  0  0  0  0  0  0  0  0
    3.6633    0.0000    0.0000 H   0  0  0  0  0  0  0  0  0  0  0  0
  1  2  2  0
  1  6  1  0
  1 11  1  0
  2  3  1  0
  2 10  1  0
  3  4  2  0
  3 12  1  0
  4  5  1  0
  4  9  1  0
  5  6  2  0
  5  8  1  0
  6  7  1  0
  8 13  1  0
M  END
$$$$

     RDKit          2D

 38 40  0  0  0  0  0  0  0  0999 V2000
    0.8523   -3.2640    0.0000 C   0  0  0  0  0  0  0  0  0  0  0  0
   -0.6439   -3.3697    0.0000 C   0  0  0  0  0  0  0  0  0  0  0  0
   -1.4836   -2.1268    0.0000 C   0  0  0  0  0  0  0  0  0  0  0  0
   -0.8271   -0.7781    0.0000 C   0  0  0  0  0  0  0  0  0  0  0  0
    0.6692   -0.6724    0.0000 C   0  0  0  0  0  0  0  0  0  0  0  0
    1.5089   -1.9153    0.0000 C   0  0  0  0  0  0  0  0  0  0  0  0
    1.3258    0.6763    0.0000 O   0  0  0  0  0  0  0  0  0  0  0  0
    2.8220    0.7820    0.0000 C   0  0  0  0  0  0  0  0  0  0  0  0
    3.6617   -0.4609    0.0000 C   0  0  0  0  0  0  0  0  0  0  0  0
    5.1580   -0.3552    0.0000 C   0  0  0  0  0  0  0  0  0  0  0  0
    5.8146    0.9935    0.0000 C   0  0  0  0  0  0  0  0  0  0  0  0
    4.9749    2.2364    0.0000 C   0  0  0  0  0  0  0  0  0  0  0  0
    3.4786    2.1307    0.0000 C   0  0  0  0  0  0  0  0  0  0  0  0
    7.3108    1.0992    0.0000 N   0  0  0  0  0  0  0  0  0  0  0  0
   -2.9799   -2.2325    0.0000 O   0  0  0  0  0  0  0  0  0  0  0  0
   -3.8196   -0.9896    0.0000 C   0  0  0  0  0  0  0  0  0  0  0  0
   -3.1630    0.3591    0.0000 C   0  0  0  0  0  0  0  0  0  0  0  0
   -4.0027    1.6020    0.0000 C   0  0  0  0  0  0  0  0  0  0  0  0
   -5.4990    1.4963    0.0000 C   0  0  0  0  0  0  0  0  0  0  0  0
   -6.1556    0.1476    0.0000 C   0  0  0  0  0  0  0  0  0  0  0  0
   -5.3159   -1.0953    0.0000 C   0  0  0  0  0  0  0  0  0  0  0  0
   -6.3387    2.7392    0.0000 N   0  0  0  0  0  0  0  0  0  0  0  0
    1.6920   -4.5069    0.0000 H   0  0  0  0  0  0  0  0  0  0  0  0
   -1.3005   -4.7184    0.0000 H   0  0  0  0  0  0  0  0  0  0  0  0
   -1.2745    0.0984    0.0000 H   0  0  0  0  0  0  0  0  0  0  0  0
    2.4917   -1.9661    0.0000 H   0  0  0  0  0  0  0  0  0  0  0  0
    3.3420   -1.3917    0.0000 H   0  0  0  0  0  0  0  0  0  0  0  0
    5.9977   -1.5981    0.0000 H   0  0  0  0  0  0  0  0  0  0  0  0
    5.6314    3.5851    0.0000 H   0  0  0  0  0  0  0  0  0  0  0  0
    2.6389    3.3736    0.0000 H   0  0  0  0  0  0  0  0  0  0  0  0
    7.9674    2.4479    0.0000 H   0  0  0  0  0  0  0  0  0  0  0  0
    8.1505   -0.1437    0.0000 H   0  0  0  0  0  0  0  0  0  0  0  0
   -2.1971    0.5476    0.0000 H   0  0  0  0  0  0  0  0  0  0  0  0
   -3.3462    2.9507    0.0000 H   0  0  0  0  0  0  0  0  0  0  0  0
   -7.6518    0.0419    0.0000 H   0  0  0  0  0  0  0  0  0  0  0  0
   -5.9724   -2.4440    0.0000 H   0  0  0  0  0  0  0  0  0  0  0  0
   -7.8350    2.6335    0.0000 H   0  0  0  0  0  0  0  0  0  0  0  0
   -5.6821    4.0879    0.0000 H   0  0  0  0  0  0  0  0  0  0  0  0
  1  2  2  0
  1  6  1  0
  1 23  1  0
  2  3  1  0
  2 24  1  0
  3  4  2  0
  3 15  1  0
  4  5  1  0
  4 25  1  0
  5  6  2  0
  5  7  1  0
  6 26  1  0
  7  8  1  0
  8  9  2  0
  8 13  1  0
  9 10  1  0
  9 27  1  0
 10 11  2  0
 10 28  1  0
 11 12  1  0
 11 14  1  0
 12 13  2  0
 12 29  1  0
 13 30  1  0
 14 31  1  0
 14 32  1  0
 15 16  1  0
 16 17  2  0
 16 21  1  0
 17 18  1  0
 17 33  1  0
 18 19  2  0
 18 34  1  0
 19 20  1  0
 19 22  1  0
 20 21  2  0
 20 35  1  0
 21 36  1  0
 22 37  1  0
 22 38  1  0
M  END
$$$$

     RDKit          2D

 22 15  0  0  0  0  0  0  0  0999 V2000
   -0.0000   -0.5000    0.0000 O   0  0  0  0  0  0  0  0  0  0  0  0
   -0.0000    1.2500    0.0000 O   0  0  0  0  0  0  0  0  0  0  0  0
   -0.0000    3.0000    0.0000 O   0  0  0  0  0  0  0  0  0  0  0  0
    3.5981   -0.5000    0.0000 O   0  0  0  0  0  0  0  0  0  0  0  0
   -0.0000    4.7500    0.0000 O   0  0  0  0  0  0  0  0  0  0  0  0
   -0.0000    6.5000    0.0000 O   0  0  0  0  0  0  0  0  0  0  0  0
    5.8971   -0.7500    0.0000 Cl  0  0  0  0  0  0  0  0  0  0  0  0
    7.1962    0.0000    0.0000 Dy  0  0  0  0  0  3  0  0  0  0  0  0
    8.4952   -0.7500    0.0000 Cl  0  0  0  0  0  0  0  0  0  0  0  0
    7.1962    1.5000    0.0000 Cl  0  0  0  0  0  0  0  0  0  0  0  0
    1.2990    0.2500    0.0000 H   0  0  0  0  0  0  0  0  0  0  0  0
   -1.2990    0.2500    0.0000 H   0  0  0  0  0  0  0  0  0  0  0  0
    1.2990    2.0000    0.0000 H   0  0  0  0  0  0  0  0  0  0  0  0
   -1.2990    2.0000    0.0000 H   0  0  0  0  0  0  0  0  0  0  0  0
    1.2990    3.7500    0.0000 H   0  0  0  0  0  0  0  0  0  0  0  0
   -1.2990    3.7500    0.0000 H   0  0  0  0  0  0  0  0  0  0  0  0
    4.8971    0.2500    0.0000 H   0  0  0  0  0  0  0  0  0  0  0  0
    2.2990    0.2500    0.0000 H   0  0  0  0  0  0  0  0  0  0  0  0
    1.2990    5.5000    0.0000 H   0  0  0  0  0  0  0  0  0  0  0  0
   -1.2990    5.5000    0.0000 H   0  0  0  0  0  0  0  0  0  0  0  0
    1.2990    7.2500    0.0000 H   0  0  0  0  0  0  0  0  0  0  0  0
   -1.2990    7.2500    0.0000 H   0  0  0  0  0  0  0  0  0  0  0  0
  1 11  1  0
  1 12  1  0
  2 13  1  0
  2 14  1  0
  3 15  1  0
  3 16  1  0
  4 17  1  0
  4 18  1  0
  5 19  1  0
  5 20  1  0
  6 21  1  0
  6 22  1  0
  7  8  1  0
  8  9  1  0
  8 10  1  0
M  END
$$$$

     RDKit          2D

 22 15  0  0  0  0  0  0  0  0999 V2000
   -0.0000   -0.5000    0.0000 O   0  0  0  0  0  0  0  0  0  0  0  0
   -0.0000    1.2500    0.0000 O   0  0  0  0  0  0  0  0  0  0  0  0
   -0.0000    3.0000    0.0000 O   0  0  0  0  0  0  0  0  0  0  0  0
    3.5981   -0.5000    0.0000 O   0  0  0  0  0  0  0  0  0  0  0  0
   -0.0000    4.7500    0.0000 O   0  0  0  0  0  0  0  0  0  0  0  0
   -0.0000    6.5000    0.0000 O   0  0  0  0  0  0  0  0  0  0  0  0
    5.8971   -0.7500    0.0000 Cl  0  0  0  0  0  0  0  0  0  0  0  0
    7.1962    0.0000    0.0000 Eu  0  0  0  0  0  3  0  0  0  0  0  0
    8.4952   -0.7500    0.0000 Cl  0  0  0  0  0  0  0  0  0  0  0  0
    7.1962    1.5000    0.0000 Cl  0  0  0  0  0  0  0  0  0  0  0  0
    1.2990    0.2500    0.0000 H   0  0  0  0  0  0  0  0  0  0  0  0
   -1.2990    0.2500    0.0000 H   0  0  0  0  0  0  0  0  0  0  0  0
    1.2990    2.0000    0.0000 H   0  0  0  0  0  0  0  0  0  0  0  0
   -1.2990    2.0000    0.0000 H   0  0  0  0  0  0  0  0  0  0  0  0
    1.2990    3.7500    0.0000 H   0  0  0  0  0  0  0  0  0  0  0  0
   -1.2990    3.7500    0.0000 H   0  0  0  0  0  0  0  0  0  0  0  0
    4.8971    0.2500    0.0000 H   0  0  0  0  0  0  0  0  0  0  0  0
    2.2990    0.2500    0.0000 H   0  0  0  0  0  0  0  0  0  0  0  0
    1.2990    5.5000    0.0000 H   0  0  0  0  0  0  0  0  0  0  0  0
   -1.2990    5.5000    0.0000 H   0  0  0  0  0  0  0  0  0  0  0  0
    1.2990    7.2500    0.0000 H   0  0  0  0  0  0  0  0  0  0  0  0
   -1.2990    7.2500    0.0000 H   0  0  0  0  0  0  0  0  0  0  0  0
  1 11  1  0
  1 12  1  0
  2 13  1  0
  2 14  1  0
  3 15  1  0
  3 16  1  0
  4 17  1  0
  4 18  1  0
  5 19  1  0
  5 20  1  0
  6 21  1  0
  6 22  1  0
  7  8  1  0
  8  9  1  0
  8 10  1  0
M  END
$$$$

     RDKit          2D

 17 17  0  0  0  0  0  0  0  0999 V2000
   -2.6313   -0.4200    0.0000 C   0  0  0  0  0  0  0  0  0  0  0  0
   -2.2597    1.0332    0.0000 C   0  0  0  0  0  0  0  0  0  0  0  0
   -0.8154    1.4380    0.0000 C   0  0  0  0  0  0  0  0  0  0  0  0
    0.2574    0.3896    0.0000 C   0  0  0  0  0  0  0  0  0  0  0  0
   -0.1143   -1.0637    0.0000 C   0  0  0  0  0  0  0  0  0  0  0  0
   -1.5586   -1.4685    0.0000 C   0  0  0  0  0  0  0  0  0  0  0  0
    1.7017    0.7943    0.0000 C   0  0  0  0  0  0  0  0  0  0  0  0
    2.0733    2.2476    0.0000 O   0  0  0  0  0  0  0  0  0  0  0  0
    2.7744   -0.2541    0.0000 C   0  0  0  0  0  0  0  0  0  0  0  0
    1.7260   -1.3268    0.0000 Cl  0  0  0  0  0  0  0  0  0  0  0  0
    3.8229    0.8186    0.0000 Cl  0  0  0  0  0  0  0  0  0  0  0  0
   -4.0757   -0.8248    0.0000 H   0  0  0  0  0  0  0  0  0  0  0  0
   -3.3324    2.0817    0.0000 H   0  0  0  0  0  0  0  0  0  0  0  0
   -0.4437    2.8912    0.0000 H   0  0  0  0  0  0  0  0  0  0  0  0
    0.9585   -2.1121    0.0000 H   0  0  0  0  0  0  0  0  0  0  0  0
   -1.9302   -2.9217    0.0000 H   0  0  0  0  0  0  0  0  0  0  0  0
    3.8472   -1.3026    0.0000 H   0  0  0  0  0  0  0  0  0  0  0  0
  1  2  2  0
  1  6  1  0
  1 12  1  0
  2  3  1  0
  2 13  1  0
  3  4  2  0
  3 14  1  0
  4  5  1  0
  4  7  1  0
  5  6  2  0
  5 15  1  0
  6 16  1  0
  7  8  2  0
  7  9  1  0
  9 10  1  0
  9 11  1  0
  9 17  1  0
M  END
$$$$

     RDKit          2D

 18 19  0  0  0  0  0  0  0  0999 V2000
    1.5451   -1.2135    0.0000 C   0  0  0  0  0  0  0  0  0  0  0  0
    2.4267    0.0000    0.0000 C   0  0  0  0  0  0  0  0  0  0  0  0
    3.9267    0.0000    0.0000 O   0  0  0  0  0  0  0  0  0  0  0  0
    1.5451    1.2135    0.0000 C   0  0  0  0  0  0  0  0  0  0  0  0
    0.1185    0.7500    0.0000 C   0  0  0  0  0  0  0  0  0  0  0  0
   -1.1806    1.5000    0.0000 C   0  0  0  0  0  0  0  0  0  0  0  0
   -2.4796    0.7500    0.0000 C   0  0  0  0  0  0  0  0  0  0  0  0
   -2.4796   -0.7500    0.0000 C   0  0  0  0  0  0  0  0  0  0  0  0
   -1.1806   -1.5000    0.0000 C   0  0  0  0  0  0  0  0  0  0  0  0
    0.1185   -0.7500    0.0000 C   0  0  0  0  0  0  0  0  0  0  0  0
    2.8441   -1.9635    0.0000 H   0  0  0  0  0  0  0  0  0  0  0  0
    0.9350   -2.5838    0.0000 H   0  0  0  0  0  0  0  0  0  0  0  0
    0.9350    2.5838    0.0000 H   0  0  0  0  0  0  0  0  0  0  0  0
    2.8441    1.9635    0.0000 H   0  0  0  0  0  0  0  0  0  0  0  0
   -1.1806    3.0000    0.0000 H   0  0  0  0  0  0  0  0  0  0  0  0
   -3.7786    1.5000    0.0000 H   0  0  0  0  0  0  0  0  0  0  0  0
   -3.7786   -1.5000    0.0000 H   0  0  0  0  0  0  0  0  0  0  0  0
   -1.1806   -3.0000    0.0000 H   0  0  0  0  0  0  0  0  0  0  0  0
  1  2  1  0
  1 10  1  0
  1 11  1  0
  1 12  1  0
  2  3  2  0
  2  4  1  0
  4  5  1  0
  4 13  1  0
  4 14  1  0
  5  6  2  0
  5 10  1  0
  6  7  1  0
  6 15  1  0
  7  8  2  0
  7 16  1  0
  8  9  1  0
  8 17  1  0
  9 10  2  0
  9 18  1  0
M  END
$$$$

     RDKit          2D

 51 54  0  0  1  0  0  0  0  0999 V2000
    2.8159    0.2112    0.0000 C   0  0  0  0  0  0  0  0  0  0  0  0
    1.3180    0.2907    0.0000 C   0  0  0  0  0  0  0  0  0  0  0  0
    2.1358    1.5482    0.0000 C   0  0  0  0  0  0  0  0  0  0  0  0
    3.6337    1.4687    0.0000 C   0  0  0  0  0  0  0  0  0  0  0  0
    4.3138    0.1317    0.0000 C   0  0  0  0  0  0  0  0  0  0  0  0
    3.4960   -1.1258    0.0000 C   0  0  0  0  0  0  0  0  0  0  0  0
    1.9981   -1.0462    0.0000 C   0  0  0  0  0  0  0  0  0  0  0  0
    1.1803   -2.3037    0.0000 C   0  0  0  0  0  0  0  0  0  0  0  0
   -0.3176   -2.2242    0.0000 C   0  0  0  0  0  0  0  0  0  0  0  0
   -0.9977   -0.8872    0.0000 C   0  0  0  0  0  0  0  0  0  0  0  0
   -0.1799    0.3703    0.0000 C   0  0  0  0  0  0  0  0  0  0  0  0
   -0.8599    1.7072    0.0000 C   0  0  0  0  0  0  0  0  0  0  0  0
   -2.3578    1.7868    0.0000 C   0  0  0  0  0  0  0  0  0  0  0  0
   -3.1756    0.5293    0.0000 C   0  0  0  0  0  0  0  0  0  0  0  0
   -2.4956   -0.8077    0.0000 C   0  0  0  0  0  0  0  0  0  0  0  0
   -3.5570   -1.8676    0.0000 C   0  0  0  0  0  0  0  0  0  0  0  0
   -4.8930   -1.1857    0.0000 C   0  0  0  0  0  0  0  0  0  0  0  0
   -4.6573    0.2957    0.0000 C   0  0  0  0  0  0  0  0  0  0  0  0
   -5.8387    1.2200    0.0000 O   0  0  0  0  0  0  0  0  0  0  0  0
   -3.9917    1.7879    0.0000 C   0  0  0  0  0  0  0  0  0  0  0  0
    5.5124    1.0336    0.0000 O   0  0  0  0  0  0  0  0  0  0  0  0
    3.1524   -0.5115    0.0000 H   0  0  0  0  0  0  0  0  0  0  0  0
    3.5895    1.4964    0.0000 H   0  0  0  0  0  0  0  0  0  0  0  0
    4.2500   -0.2284    0.0000 H   0  0  0  0  0  0  0  0  0  0  0  0
    2.4743    3.0095    0.0000 H   0  0  0  0  0  0  0  0  0  0  0  0
    0.9386    2.4518    0.0000 H   0  0  0  0  0  0  0  0  0  0  0  0
    5.0685    1.9062    0.0000 H   0  0  0  0  0  0  0  0  0  0  0  0
    3.4519    2.9576    0.0000 H   0  0  0  0  0  0  0  0  0  0  0  0
    5.4101   -0.8921    0.0000 H   0  0  0  0  0  0  0  0  0  0  0  0
    3.5212   -2.6255    0.0000 H   0  0  0  0  0  0  0  0  0  0  0  0
    4.8763   -1.7128    0.0000 H   0  0  0  0  0  0  0  0  0  0  0  0
    2.6782   -2.3832    0.0000 H   0  0  0  0  0  0  0  0  0  0  0  0
    0.8419   -3.7650    0.0000 H   0  0  0  0  0  0  0  0  0  0  0  0
    2.3776   -3.2073    0.0000 H   0  0  0  0  0  0  0  0  0  0  0  0
   -1.6038   -2.9959    0.0000 H   0  0  0  0  0  0  0  0  0  0  0  0
   -0.1358   -3.7131    0.0000 H   0  0  0  0  0  0  0  0  0  0  0  0
   -1.8155   -2.1446    0.0000 H   0  0  0  0  0  0  0  0  0  0  0  0
    0.6380    1.6277    0.0000 H   0  0  0  0  0  0  0  0  0  0  0  0
   -1.0417    3.1962    0.0000 H   0  0  0  0  0  0  0  0  0  0  0  0
    0.4263    2.4790    0.0000 H   0  0  0  0  0  0  0  0  0  0  0  0
   -3.5551    2.6904    0.0000 H   0  0  0  0  0  0  0  0  0  0  0  0
   -2.0194    3.2481    0.0000 H   0  0  0  0  0  0  0  0  0  0  0  0
   -1.8137    0.5284    0.0000 H   0  0  0  0  0  0  0  0  0  0  0  0
   -2.6551   -3.0662    0.0000 H   0  0  0  0  0  0  0  0  0  0  0  0
   -4.3748   -3.1250    0.0000 H   0  0  0  0  0  0  0  0  0  0  0  0
   -5.4315   -2.5857    0.0000 H   0  0  0  0  0  0  0  0  0  0  0  0
   -6.3416   -0.7965    0.0000 H   0  0  0  0  0  0  0  0  0  0  0  0
   -5.3404    1.1313    0.0000 H   0  0  0  0  0  0  0  0  0  0  0  0
   -2.7332    2.6040    0.0000 H   0  0  0  0  0  0  0  0  0  0  0  0
   -4.8078    3.0464    0.0000 H   0  0  0  0  0  0  0  0  0  0  0  0
    6.8927    0.4466    0.0000 H   0  0  0  0  0  0  0  0  0  0  0  0
  1 22  1  0
  1 23  1  0
  1 24  1  0
  2  3  1  0
  2  7  1  0
  2 11  1  0
  2  1  1  1
  3  4  1  0
  3 25  1  0
  3 26  1  0
  4  5  1  0
  4 27  1  0
  4 28  1  0
  5  6  1  0
  5 29  1  6
  5 21  1  0
  6  7  1  0
  6 30  1  0
  6 31  1  0
  7  8  1  0
  7 32  1  6
  8  9  1  0
  8 33  1  0
  8 34  1  0
  9 10  1  0
  9 35  1  0
  9 36  1  0
 10 11  1  0
 10 15  1  0
 10 37  1  1
 11 12  1  0
 11 38  1  6
 12 13  1  0
 12 39  1  0
 12 40  1  0
 13 14  1  0
 13 41  1  0
 13 42  1  0
 14 15  1  0
 14 18  1  0
 14 20  1  1
 15 16  1  0
 15 43  1  1
 16 17  1  0
 16 44  1  0
 16 45  1  0
 17 18  1  0
 17 46  1  0
 17 47  1  0
 18 19  2  0
 20 48  1  0
 20 49  1  0
 20 50  1  0
 21 51  1  0
M  END
$$$$

     RDKit          2D

 30 30  0  0  0  0  0  0  0  0999 V2000
   -4.8723   -0.1548    0.0000 C   0  0  0  0  0  0  0  0  0  0  0  0
   -3.6669    0.7379    0.0000 N   0  0  0  0  0  0  0  0  0  0  0  0
   -2.2911    0.1403    0.0000 C   0  0  0  0  0  0  0  0  0  0  0  0
   -0.9153   -0.4573    0.0000 C   0  0  0  0  0  0  0  0  0  0  0  0
    0.4606   -1.0550    0.0000 C   0  0  0  0  0  0  0  0  0  0  0  0
    1.8364   -1.6526    0.0000 C   0  0  0  0  0  0  0  0  0  0  0  0
    2.4340   -0.2768    0.0000 C   0  0  0  0  0  0  0  0  0  0  0  0
    1.5413    0.9287    0.0000 C   0  0  0  0  0  0  0  0  0  0  0  0
    2.1389    2.3045    0.0000 N   0  0  0  0  0  0  0  0  0  0  0  0
    3.6292    2.4749    0.0000 C   0  0  0  0  0  0  0  0  0  0  0  0
    4.5219    1.2694    0.0000 C   0  0  0  0  0  0  0  0  0  0  0  0
    3.9243   -0.1064    0.0000 C   0  0  0  0  0  0  0  0  0  0  0  0
    1.2387   -3.0284    0.0000 O   0  0  0  0  0  0  0  0  0  0  0  0
   -3.8372    2.2282    0.0000 N   0  0  0  0  0  0  0  0  0  0  0  0
   -5.2130    2.8258    0.0000 O   0  0  0  0  0  0  0  0  0  0  0  0
   -5.7650    1.0507    0.0000 H   0  0  0  0  0  0  0  0  0  0  0  0
   -3.9797   -1.3602    0.0000 H   0  0  0  0  0  0  0  0  0  0  0  0
   -6.0778   -1.0475    0.0000 H   0  0  0  0  0  0  0  0  0  0  0  0
   -2.8887   -1.2355    0.0000 H   0  0  0  0  0  0  0  0  0  0  0  0
   -1.6935    1.5161    0.0000 H   0  0  0  0  0  0  0  0  0  0  0  0
   -0.5706    0.7078    0.0000 H   0  0  0  0  0  0  0  0  0  0  0  0
   -1.5129   -1.8332    0.0000 H   0  0  0  0  0  0  0  0  0  0  0  0
   -0.1371   -2.4308    0.0000 H   0  0  0  0  0  0  0  0  0  0  0  0
    0.6406    0.0236    0.0000 H   0  0  0  0  0  0  0  0  0  0  0  0
    3.2122   -2.2502    0.0000 H   0  0  0  0  0  0  0  0  0  0  0  0
    0.6556    0.9361    0.0000 H   0  0  0  0  0  0  0  0  0  0  0  0
    4.2268    3.8507    0.0000 H   0  0  0  0  0  0  0  0  0  0  0  0
    6.0122    1.4398    0.0000 H   0  0  0  0  0  0  0  0  0  0  0  0
    4.8170   -1.3119    0.0000 H   0  0  0  0  0  0  0  0  0  0  0  0
    2.1314   -4.2338    0.0000 H   0  0  0  0  0  0  0  0  0  0  0  0
  1  2  1  0
  1 16  1  0
  1 17  1  0
  1 18  1  0
  2  3  1  0
  2 14  1  0
  3  4  1  0
  3 19  1  0
  3 20  1  0
  4  5  1  0
  4 21  1  0
  4 22  1  0
  5  6  1  0
  5 23  1  0
  5 24  1  0
  6  7  1  0
  6 13  1  0
  6 25  1  6
  7  8  2  0
  7 12  1  0
  8  9  1  0
  8 26  1  0
  9 10  2  0
 10 11  1  0
 10 27  1  0
 11 12  2  0
 11 28  1  0
 12 29  1  0
 13 30  1  0
 14 15  2  0
M  END
$$$$

     RDKit          2D

 35 37  0  0  0  0  0  0  0  0999 V2000
   -1.9103   -1.2412    0.0000 C   0  0  0  0  0  0  0  0  0  0  0  0
   -0.9982   -2.4320    0.0000 C   0  0  0  0  0  0  0  0  0  0  0  0
   -0.4230   -1.0466    0.0000 C   0  0  0  0  0  0  0  0  0  0  0  0
   -0.3563    0.4519    0.0000 C   0  0  0  0  0  0  0  0  0  0  0  0
    1.1422    0.3852    0.0000 C   0  0  0  0  0  0  0  0  0  0  0  0
    2.6407    0.3186    0.0000 C   0  0  0  0  0  0  0  0  0  0  0  0
    3.3322   -1.0125    0.0000 C   0  0  0  0  0  0  0  0  0  0  0  0
    4.8307   -1.0792    0.0000 C   0  0  0  0  0  0  0  0  0  0  0  0
    5.6377    0.1852    0.0000 C   0  0  0  0  0  0  0  0  0  0  0  0
    4.9462    1.5163    0.0000 C   0  0  0  0  0  0  0  0  0  0  0  0
    3.4477    1.5830    0.0000 C   0  0  0  0  0  0  0  0  0  0  0  0
    2.7562    2.9141    0.0000 Cl  0  0  0  0  0  0  0  0  0  0  0  0
   -1.8549    0.5186    0.0000 C   0  0  0  0  0  0  0  0  0  0  0  0
   -3.3534    0.5852    0.0000 N   0  0  0  0  0  0  0  0  0  0  0  0
   -4.2881   -0.5879    0.0000 C   0  0  0  0  0  0  0  0  0  0  0  0
   -5.6927   -0.0614    0.0000 N   0  0  0  0  0  0  0  0  0  0  0  0
   -5.6260    1.4371    0.0000 C   0  0  0  0  0  0  0  0  0  0  0  0
   -4.1802    1.8368    0.0000 N   0  0  0  0  0  0  0  0  0  0  0  0
   -0.2897    1.9504    0.0000 O   0  0  0  0  0  0  0  0  0  0  0  0
    0.6074   -1.4125    0.0000 Cl  0  0  0  0  0  0  0  0  0  0  0  0
   -3.1472   -2.0898    0.0000 H   0  0  0  0  0  0  0  0  0  0  0  0
   -2.4810   -0.3084    0.0000 H   0  0  0  0  0  0  0  0  0  0  0  0
    0.2662   -3.2390    0.0000 H   0  0  0  0  0  0  0  0  0  0  0  0
   -2.0125   -3.5370    0.0000 H   0  0  0  0  0  0  0  0  0  0  0  0
    1.2271   -0.7050    0.0000 H   0  0  0  0  0  0  0  0  0  0  0  0
    1.2088    1.8837    0.0000 H   0  0  0  0  0  0  0  0  0  0  0  0
    2.5252   -2.2770    0.0000 H   0  0  0  0  0  0  0  0  0  0  0  0
    5.5222   -2.4103    0.0000 H   0  0  0  0  0  0  0  0  0  0  0  0
    7.1362    0.1185    0.0000 H   0  0  0  0  0  0  0  0  0  0  0  0
    5.7532    2.7807    0.0000 H   0  0  0  0  0  0  0  0  0  0  0  0
   -2.0819   -0.2456    0.0000 H   0  0  0  0  0  0  0  0  0  0  0  0
   -1.9714    2.0140    0.0000 H   0  0  0  0  0  0  0  0  0  0  0  0
   -4.0677   -2.0716    0.0000 H   0  0  0  0  0  0  0  0  0  0  0  0
   -6.7992    2.3719    0.0000 H   0  0  0  0  0  0  0  0  0  0  0  0
   -1.4463    2.9055    0.0000 H   0  0  0  0  0  0  0  0  0  0  0  0
  1  2  1  0
  1  3  1  0
  1 21  1  0
  1 22  1  0
  2  3  1  0
  2 23  1  0
  2 24  1  0
  3  4  1  0
  3 20  1  0
  4  5  1  0
  4 13  1  0
  4 19  1  1
  5  6  1  0
  5 25  1  0
  5 26  1  0
  6  7  2  0
  6 11  1  0
  7  8  1  0
  7 27  1  0
  8  9  2  0
  8 28  1  0
  9 10  1  0
  9 29  1  0
 10 11  2  0
 10 30  1  0
 11 12  1  0
 13 14  1  0
 13 31  1  0
 13 32  1  0
 14 15  1  0
 14 18  1  0
 15 16  2  0
 15 33  1  0
 16 17  1  0
 17 18  2  0
 17 34  1  0
 19 35  1  0
M  END
$$$$
