Largest isolated from Written by BCL::WriteToMDL,1830756
JMcorina  04211410293D 1   1.00000     0.00000 
CORINA 3.49 0026  01.06.2011
 52 53  0  0  0  0  0  0  0  0999 V2000
    0.3751    1.6166   -0.6974 S   0  0  0  1  0  0  0  0  0  0  0  0
   12.3164    4.0388    0.4693 O   0  0  0  1  0  0  0  0  0  0  0  0
   12.5272    1.5025    0.5055 O   0  0  0  1  0  0  0  0  0  0  0  0
   10.2739    4.9134    0.4777 O   0  0  0  1  0  0  0  0  0  0  0  0
   10.6834    0.2933    0.2314 O   0  0  0  1  0  0  0  0  0  0  0  0
    2.7527    1.0896   -1.3257 N   0  0  0  1  0  0  0  0  0  0  0  0
    2.6701    3.0754   -0.0507 N   0  0  0  1  0  0  0  0  0  0  0  0
    8.2111    3.5814    0.1770 N   0  0  0  1  0  0  0  0  0  0  0  0
    0.5298    0.0942   -1.6864 C   0  0  0  1  0  0  0  0  0  0  0  0
    2.0420   -0.0102   -1.9390 C   0  0  0  1  0  0  0  0  0  0  0  0
    0.0297   -1.1164   -0.8957 C   0  0  0  1  0  0  0  0  0  0  0  0
   -0.2300    0.2292   -3.0075 C   0  0  0  1  0  0  0  0  0  0  0  0
    2.1034    1.9864   -0.6744 C   0  0  0  1  0  0  0  0  0  0  0  0
    4.0633    3.2026    0.0069 C   0  0  0  1  0  0  0  0  0  0  0  0
    4.6415    4.4599    0.1260 C   0  0  0  1  0  0  0  0  0  0  0  0
    4.8668    2.0711   -0.0494 C   0  0  0  1  0  0  0  0  0  0  0  0
    6.8188    3.4543    0.1203 C   0  0  0  1  0  0  0  0  0  0  0  0
    6.0149    4.5854    0.1823 C   0  0  0  1  0  0  0  0  0  0  0  0
    6.2402    2.1964    0.0078 C   0  0  0  1  0  0  0  0  0  0  0  0
    8.9918    2.4829    0.1168 C   0  0  0  1  0  0  0  0  0  0  0  0
   10.3588    2.5963    0.2875 C   0  0  0  1  0  0  0  0  0  0  0  0
   11.1937    1.3919    0.3389 C   0  0  0  1  0  0  0  0  0  0  0  0
   10.9741    3.9210    0.4172 C   0  0  0  1  0  0  0  0  0  0  0  0
   12.8560    5.3807    0.5980 C   0  0  0  1  0  0  0  0  0  0  0  0
   13.2910    0.2683    0.5470 C   0  0  0  1  0  0  0  0  0  0  0  0
   14.7737    0.5923    0.7405 C   0  0  0  1  0  0  0  0  0  0  0  0
   14.3839    5.3141    0.6406 C   0  0  0  1  0  0  0  0  0  0  0  0
    2.2264    0.0000   -3.0132 H   0  0  0  1  0  0  0  0  0  0  0  0
    2.4096   -0.9488   -1.5242 H   0  0  0  1  0  0  0  0  0  0  0  0
    0.1612    1.0793   -3.5665 H   0  0  0  1  0  0  0  0  0  0  0  0
   -0.1035   -0.6807   -3.5941 H   0  0  0  1  0  0  0  0  0  0  0  0
   -1.0251   -0.9830   -0.6556 H   0  0  0  1  0  0  0  0  0  0  0  0
    0.1548   -2.0184   -1.4946 H   0  0  0  1  0  0  0  0  0  0  0  0
    0.6032   -1.2101    0.0265 H   0  0  0  1  0  0  0  0  0  0  0  0
   -1.2893    0.3853   -2.8031 H   0  0  0  1  0  0  0  0  0  0  0  0
    2.1042    3.7545    0.3488 H   0  0  0  1  0  0  0  0  0  0  0  0
    4.0164    5.3393    0.1742 H   0  0  0  1  0  0  0  0  0  0  0  0
    4.4170    1.0932   -0.1375 H   0  0  0  1  0  0  0  0  0  0  0  0
    6.4645    5.5631    0.2742 H   0  0  0  1  0  0  0  0  0  0  0  0
    6.8650    1.3165   -0.0352 H   0  0  0  1  0  0  0  0  0  0  0  0
    8.6150    4.4595    0.2596 H   0  0  0  1  0  0  0  0  0  0  0  0
    8.5487    1.5149   -0.0647 H   0  0  0  1  0  0  0  0  0  0  0  0
   12.5421    5.9818   -0.2554 H   0  0  0  1  0  0  0  0  0  0  0  0
   12.4863    5.8343    1.5176 H   0  0  0  1  0  0  0  0  0  0  0  0
   12.9423   -0.3470    1.3764 H   0  0  0  1  0  0  0  0  0  0  0  0
   13.1567   -0.2738   -0.3891 H   0  0  0  1  0  0  0  0  0  0  0  0
   15.3470   -0.3342    0.7717 H   0  0  0  1  0  0  0  0  0  0  0  0
   15.1224    1.2076   -0.0889 H   0  0  0  1  0  0  0  0  0  0  0  0
   14.9080    1.1344    1.6766 H   0  0  0  1  0  0  0  0  0  0  0  0
   14.7536    4.8605   -0.2790 H   0  0  0  1  0  0  0  0  0  0  0  0
   14.7889    6.3214    0.7372 H   0  0  0  1  0  0  0  0  0  0  0  0
   14.6977    4.7129    1.4940 H   0  0  0  1  0  0  0  0  0  0  0  0
  1  9  1  0  0  0  0
  1 13  1  0  0  0  0
  2 23  1  0  0  0  0
  2 24  1  0  0  0  0
  3 22  1  0  0  0  0
  3 25  1  0  0  0  0
  4 23  2  0  0  0  0
  5 22  2  0  0  0  0
  6 10  1  0  0  0  0
  6 13  2  0  0  0  0
  7 13  1  0  0  0  0
  7 14  1  0  0  0  0
  7 36  1  0  0  0  0
  8 17  1  0  0  0  0
  8 20  1  0  0  0  0
  8 41  1  0  0  0  0
  9 10  1  0  0  0  0
  9 11  1  0  0  0  0
  9 12  1  0  0  0  0
 10 28  1  0  0  0  0
 10 29  1  0  0  0  0
 11 32  1  0  0  0  0
 11 33  1  0  0  0  0
 11 34  1  0  0  0  0
 12 30  1  0  0  0  0
 12 31  1  0  0  0  0
 12 35  1  0  0  0  0
 14 15  4  0  0  0  0
 14 16  4  0  0  0  0
 15 18  4  0  0  0  0
 15 37  1  0  0  0  0
 16 19  4  0  0  0  0
 16 38  1  0  0  0  0
 17 18  4  0  0  0  0
 17 19  4  0  0  0  0
 18 39  1  0  0  0  0
 19 40  1  0  0  0  0
 20 21  2  0  0  0  0
 20 42  1  0  0  0  0
 21 22  1  0  0  0  0
 21 23  1  0  0  0  0
 24 27  1  0  0  0  0
 24 43  1  0  0  0  0
 24 44  1  0  0  0  0
 25 26  1  0  0  0  0
 25 45  1  0  0  0  0
 25 46  1  0  0  0  0
 26 47  1  0  0  0  0
 26 48  1  0  0  0  0
 26 49  1  0  0  0  0
 27 50  1  0  0  0  0
 27 51  1  0  0  0  0
 27 52  1  0  0  0  0
M  END
> <Activity>
0.01

> <Mapped(file=2032.csv.activities,property=Cached(PUBCHEM_COMPOUND_CID))>
100

> <MatchIndices>
150 

> <PUBCHEM_ATOM_DEF_STEREO_COUNT>
0

> <PUBCHEM_ATOM_UDEF_STEREO_COUNT>
0

> <PUBCHEM_BONDANNOTATIONS>
14  15  8
14  16  8
15  18  8
16  19  8
17  18  8
17  19  8

> <PUBCHEM_BOND_DEF_STEREO_COUNT>
0

> <PUBCHEM_BOND_UDEF_STEREO_COUNT>
0

> <PUBCHEM_CACTVS_COMPLEXITY>
576

> <PUBCHEM_CACTVS_HBOND_ACCEPTOR>
7

> <PUBCHEM_CACTVS_HBOND_DONOR>
2

> <PUBCHEM_CACTVS_ROTATABLE_BOND>
10

> <PUBCHEM_CACTVS_SUBSKEYS>
AAADceB7OABAAAAAAAAAAAAAAAAAAQAAAAAwAAAAAAAAAAABAAAAHgQQAAAADAjh0AYzyILABAioAiTWbACCEAFhAhAJiIEIZMgIJCbIuZGGIAhhsABI6McQAAAAAACAAAAAAAAAAQAAAAAAAAAAAAAAAA==

> <PUBCHEM_CACTVS_TAUTO_COUNT>
6

> <PUBCHEM_CACTVS_TPSA>
114

> <PUBCHEM_COMPONENT_COUNT>
1

> <PUBCHEM_COMPOUND_CANONICALIZED>
1

> <PUBCHEM_COMPOUND_CID>
1830756

> <PUBCHEM_COORDINATE_TYPE>
1
5
255

> <PUBCHEM_EXACT_MASS>
391.156577

> <PUBCHEM_HEAVY_ATOM_COUNT>
27

> <PUBCHEM_ISOTOPIC_ATOM_COUNT>
0

> <PUBCHEM_IUPAC_CAS_NAME>
2-[[4-[(5,5-dimethyl-4H-thiazol-2-yl)amino]anilino]methylidene]propanedioic acid diethyl ester

> <PUBCHEM_IUPAC_INCHI>
InChI=1S/C19H25N3O4S/c1-5-25-16(23)15(17(24)26-6-2)11-20-13-7-9-14(10-8-13)22-18-21-12-19(3,4)27-18/h7-11,20H,5-6,12H2,1-4H3,(H,21,22)

> <PUBCHEM_IUPAC_INCHIKEY>
SQAHNXJEYGFFPV-UHFFFAOYSA-N

> <PUBCHEM_IUPAC_NAME>
diethyl 2-[[4-[(5,5-dimethyl-4H-1,3-thiazol-2-yl)amino]anilino]methylidene]propanedioate

> <PUBCHEM_IUPAC_OPENEYE_NAME>
diethyl 2-[[4-[(5,5-dimethyl-4H-thiazol-2-yl)amino]anilino]methylene]propanedioate

> <PUBCHEM_IUPAC_SYSTEMATIC_NAME>
diethyl 2-[[[4-[(5,5-dimethyl-4H-1,3-thiazol-2-yl)amino]phenyl]amino]methylidene]propanedioate

> <PUBCHEM_IUPAC_TRADITIONAL_NAME>
2-[[4-[(5,5-dimethyl-2-thiazolin-2-yl)amino]anilino]methylene]malonic acid diethyl ester

> <PUBCHEM_MOLECULAR_FORMULA>
C19H25N3O4S

> <PUBCHEM_MOLECULAR_WEIGHT>
391.4845

> <PUBCHEM_MONOISOTOPIC_WEIGHT>
391.156577

> <PUBCHEM_OPENEYE_CAN_SMILES>
CCOC(=O)C(=CNC1=CC=C(C=C1)NC2=NCC(S2)(C)C)C(=O)OCC

> <PUBCHEM_OPENEYE_ISO_SMILES>
CCOC(=O)C(=CNC1=CC=C(C=C1)NC2=NCC(S2)(C)C)C(=O)OCC

> <PUBCHEM_TOTAL_CHARGE>
0

> <PUBCHEM_XLOGP3_AA>
3.7

$$$$
Largest isolated from Written by BCL::WriteToMDL,2234459
JMcorina  04211410293D 1   1.00000     0.00000 
CORINA 3.49 0026  01.06.2011
 37 38  0  0  0  0  0  0  0  0999 V2000
   -2.7803    0.0918    4.4848 Cl  0  0  0  1  0  0  0  0  0  0  0  0
   -0.0172    1.4168    0.0098 S   0  0  0  1  0  0  0  0  0  0  0  0
   -0.6597    4.1869    0.8657 O   0  0  0  1  0  0  0  0  0  0  0  0
    0.0021   -0.0041    0.0020 O   0  0  0  1  0  0  0  0  0  0  0  0
    1.1617    2.2101    0.0028 O   0  0  0  1  0  0  0  0  0  0  0  0
   -0.8542    3.6774   -4.0683 O   0  0  0  1  0  0  0  0  0  0  0  0
   -0.9002    1.8797   -1.3124 N   0  0  0  1  0  0  0  0  0  0  0  0
   -0.9297    1.8941    1.4396 C   0  0  0  1  0  0  0  0  0  0  0  0
   -1.1488    3.2375    1.7064 C   0  0  0  1  0  0  0  0  0  0  0  0
   -1.1366    3.3017   -1.5741 C   0  0  0  1  0  0  0  0  0  0  0  0
   -1.4321    0.9304    2.2926 C   0  0  0  1  0  0  0  0  0  0  0  0
   -2.3634    2.6447    3.6863 C   0  0  0  1  0  0  0  0  0  0  0  0
   -1.8676    3.6109    2.8329 C   0  0  0  1  0  0  0  0  0  0  0  0
   -2.1490    1.3047    3.4151 C   0  0  0  1  0  0  0  0  0  0  0  0
   -1.6270    3.4775   -2.9882 C   0  0  0  1  0  0  0  0  0  0  0  0
   -3.1442    3.0497    4.9100 C   0  0  0  1  0  0  0  0  0  0  0  0
   -0.9237    5.5502    1.2028 C   0  0  0  1  0  0  0  0  0  0  0  0
   -2.9129    3.4613   -3.3826 C   0  0  0  1  0  0  0  0  0  0  0  0
   -2.9146    3.6632   -4.7819 C   0  0  0  1  0  0  0  0  0  0  0  0
   -0.2995    6.4664    0.1483 C   0  0  0  1  0  0  0  0  0  0  0  0
   -1.6297    3.7907   -5.1589 C   0  0  0  1  0  0  0  0  0  0  0  0
   -1.2609    1.2094   -1.9136 H   0  0  0  1  0  0  0  0  0  0  0  0
   -1.8873    3.6790   -0.8796 H   0  0  0  1  0  0  0  0  0  0  0  0
   -0.2072    3.8551   -1.4403 H   0  0  0  1  0  0  0  0  0  0  0  0
   -1.2655   -0.1159    2.0828 H   0  0  0  1  0  0  0  0  0  0  0  0
   -2.0389    4.6564    3.0425 H   0  0  0  1  0  0  0  0  0  0  0  0
   -4.2033    3.1134    4.6606 H   0  0  0  1  0  0  0  0  0  0  0  0
   -2.9998    2.3076    5.6952 H   0  0  0  1  0  0  0  0  0  0  0  0
   -2.7941    4.0211    5.2593 H   0  0  0  1  0  0  0  0  0  0  0  0
   -2.0007    5.7145    1.2352 H   0  0  0  1  0  0  0  0  0  0  0  0
   -0.4926    5.7731    2.1788 H   0  0  0  1  0  0  0  0  0  0  0  0
   -3.7779    3.3204   -2.7516 H   0  0  0  1  0  0  0  0  0  0  0  0
   -3.7813    3.7064   -5.4249 H   0  0  0  1  0  0  0  0  0  0  0  0
    0.7775    6.3021    0.1159 H   0  0  0  1  0  0  0  0  0  0  0  0
   -0.7306    6.2435   -0.8277 H   0  0  0  1  0  0  0  0  0  0  0  0
   -0.5009    7.5063    0.4055 H   0  0  0  1  0  0  0  0  0  0  0  0
   -1.2808    3.9562   -6.1675 H   0  0  0  1  0  0  0  0  0  0  0  0
  1 14  1  0  0  0  0
  2  4  2  0  0  0  0
  2  5  2  0  0  0  0
  2  7  1  0  0  0  0
  2  8  1  0  0  0  0
  3  9  1  0  0  0  0
  3 17  1  0  0  0  0
  6 15  4  0  0  0  0
  6 21  4  0  0  0  0
  7 10  1  0  0  0  0
  7 22  1  0  0  0  0
  8  9  4  0  0  0  0
  8 11  4  0  0  0  0
  9 13  4  0  0  0  0
 10 15  1  0  0  0  0
 10 23  1  0  0  0  0
 10 24  1  0  0  0  0
 11 14  4  0  0  0  0
 11 25  1  0  0  0  0
 12 13  4  0  0  0  0
 12 14  4  0  0  0  0
 12 16  1  0  0  0  0
 13 26  1  0  0  0  0
 15 18  4  0  0  0  0
 16 27  1  0  0  0  0
 16 28  1  0  0  0  0
 16 29  1  0  0  0  0
 17 20  1  0  0  0  0
 17 30  1  0  0  0  0
 17 31  1  0  0  0  0
 18 19  4  0  0  0  0
 18 32  1  0  0  0  0
 19 21  4  0  0  0  0
 19 33  1  0  0  0  0
 20 34  1  0  0  0  0
 20 35  1  0  0  0  0
 20 36  1  0  0  0  0
 21 37  1  0  0  0  0
M  END
> <Activity>
0.01

> <Mapped(file=2032.csv.activities,property=Cached(PUBCHEM_COMPOUND_CID))>
100

> <MatchIndices>
122 

> <PUBCHEM_ATOM_DEF_STEREO_COUNT>
0

> <PUBCHEM_ATOM_UDEF_STEREO_COUNT>
0

> <PUBCHEM_BONDANNOTATIONS>
11  14  8
12  13  8
12  14  8
15  18  8
18  19  8
19  21  8
6  15  8
6  21  8
8  11  8
8  9  8
9  13  8

> <PUBCHEM_BOND_DEF_STEREO_COUNT>
0

> <PUBCHEM_BOND_UDEF_STEREO_COUNT>
0

> <PUBCHEM_CACTVS_COMPLEXITY>
425

> <PUBCHEM_CACTVS_HBOND_ACCEPTOR>
5

> <PUBCHEM_CACTVS_HBOND_DONOR>
1

> <PUBCHEM_CACTVS_ROTATABLE_BOND>
6

> <PUBCHEM_CACTVS_SUBSKEYS>
AAADceByOABEAAAAAAAAAAAAAAAAASAAAAAwAAAAAAAAAAABwAAAHgYQQAAADAbh2CYyB4BABEKIAqhSgHDCCBAkJQAIiJuGDsgOJjKFtxuDOSDkwBEIqYeY0RAOECABABABIAAgQAIAIAJAAAAAAAAAAA==

> <PUBCHEM_CACTVS_TAUTO_COUNT>
1

> <PUBCHEM_CACTVS_TPSA>
76.9

> <PUBCHEM_COMPONENT_COUNT>
1

> <PUBCHEM_COMPOUND_CANONICALIZED>
1

> <PUBCHEM_COMPOUND_CID>
2234459

> <PUBCHEM_COORDINATE_TYPE>
1
5
255

> <PUBCHEM_EXACT_MASS>
329.048857

> <PUBCHEM_HEAVY_ATOM_COUNT>
21

> <PUBCHEM_ISOTOPIC_ATOM_COUNT>
0

> <PUBCHEM_IUPAC_CAS_NAME>
5-chloro-2-ethoxy-N-(2-furanylmethyl)-4-methylbenzenesulfonamide

> <PUBCHEM_IUPAC_INCHI>
InChI=1S/C14H16ClNO4S/c1-3-19-13-7-10(2)12(15)8-14(13)21(17,18)16-9-11-5-4-6-20-11/h4-8,16H,3,9H2,1-2H3

> <PUBCHEM_IUPAC_INCHIKEY>
WEBFMVQOWCKLEQ-UHFFFAOYSA-N

> <PUBCHEM_IUPAC_NAME>
5-chloro-2-ethoxy-N-(furan-2-ylmethyl)-4-methylbenzenesulfonamide

> <PUBCHEM_IUPAC_OPENEYE_NAME>
5-chloro-2-ethoxy-N-(2-furylmethyl)-4-methyl-benzenesulfonamide

> <PUBCHEM_IUPAC_SYSTEMATIC_NAME>
5-chloranyl-2-ethoxy-N-(furan-2-ylmethyl)-4-methyl-benzenesulfonamide

> <PUBCHEM_IUPAC_TRADITIONAL_NAME>
5-chloro-2-ethoxy-N-(2-furfuryl)-4-methyl-benzenesulfonamide

> <PUBCHEM_MOLECULAR_FORMULA>
C14H16ClNO4S

> <PUBCHEM_MOLECULAR_WEIGHT>
329.79914

> <PUBCHEM_MONOISOTOPIC_WEIGHT>
329.048857

> <PUBCHEM_OPENEYE_CAN_SMILES>
CCOC1=C(C=C(C(=C1)C)Cl)S(=O)(=O)NCC2=CC=CO2

> <PUBCHEM_OPENEYE_ISO_SMILES>
CCOC1=C(C=C(C(=C1)C)Cl)S(=O)(=O)NCC2=CC=CO2

> <PUBCHEM_TOTAL_CHARGE>
0

> <PUBCHEM_XLOGP3_AA>
2.8

$$$$
Largest isolated from Written by BCL::WriteToMDL,20937323
JMcorina  04211410293D 1   1.00000     0.00000 
CORINA 3.49 0026  01.06.2011
 43 44  0  0  0  0  0  0  0  0999 V2000
   -0.0172    1.4168    0.0098 S   0  0  0  1  0  0  0  0  0  0  0  0
   -1.8005    3.2404    3.3797 S   0  0  0  1  0  0  0  0  0  0  0  0
    0.0021   -0.0041    0.0020 O   0  0  0  1  0  0  0  0  0  0  0  0
    1.1617    2.2101    0.0028 O   0  0  0  1  0  0  0  0  0  0  0  0
   -3.7745    0.6988   -0.2297 O   0  0  0  1  0  0  0  0  0  0  0  0
   -3.8412   -0.1485    3.7056 O   0  0  0  1  0  0  0  0  0  0  0  0
   -0.9002    1.8797   -1.3124 N   0  0  0  1  0  0  0  0  0  0  0  0
   -3.9815    1.6328    5.0267 N   0  0  0  1  0  0  0  0  0  0  0  0
    0.2961    3.1137   -3.0524 C   0  0  0  1  0  0  0  0  0  0  0  0
   -0.7022    3.2084   -1.8968 C   0  0  0  1  0  0  0  0  0  0  0  0
    0.5029    4.5013   -3.6628 C   0  0  0  1  0  0  0  0  0  0  0  0
   -1.8794    0.9606   -1.8977 C   0  0  0  1  0  0  0  0  0  0  0  0
    1.5923    4.4297   -4.7347 C   0  0  0  1  0  0  0  0  0  0  0  0
   -0.8050    4.9800   -4.2960 C   0  0  0  1  0  0  0  0  0  0  0  0
   -0.9297    1.8941    1.4396 C   0  0  0  1  0  0  0  0  0  0  0  0
   -3.2449    1.2544   -1.3318 C   0  0  0  1  0  0  0  0  0  0  0  0
   -1.8499    1.0663    2.0377 C   0  0  0  1  0  0  0  0  0  0  0  0
   -0.7772    3.0888    2.0228 C   0  0  0  1  0  0  0  0  0  0  0  0
   -4.1402    2.1171   -1.8451 C   0  0  0  1  0  0  0  0  0  0  0  0
   -2.4473    1.6242    3.1328 C   0  0  0  1  0  0  0  0  0  0  0  0
   -5.2753    2.0789   -1.0030 C   0  0  0  1  0  0  0  0  0  0  0  0
   -5.0057    1.1951   -0.0254 C   0  0  0  1  0  0  0  0  0  0  0  0
   -3.4642    0.9785    3.9681 C   0  0  0  1  0  0  0  0  0  0  0  0
    1.2480    2.7349   -2.6801 H   0  0  0  1  0  0  0  0  0  0  0  0
   -0.0920    2.4363   -3.8131 H   0  0  0  1  0  0  0  0  0  0  0  0
   -1.6540    3.5872   -2.2691 H   0  0  0  1  0  0  0  0  0  0  0  0
   -0.3141    3.8858   -1.1361 H   0  0  0  1  0  0  0  0  0  0  0  0
    0.8060    5.1998   -2.8828 H   0  0  0  1  0  0  0  0  0  0  0  0
   -1.8988    1.0911   -2.9797 H   0  0  0  1  0  0  0  0  0  0  0  0
   -1.6010   -0.0662   -1.6604 H   0  0  0  1  0  0  0  0  0  0  0  0
   -1.1081    4.2815   -5.0760 H   0  0  0  1  0  0  0  0  0  0  0  0
   -1.5811    5.0310   -3.5324 H   0  0  0  1  0  0  0  0  0  0  0  0
    1.2892    3.7312   -5.5147 H   0  0  0  1  0  0  0  0  0  0  0  0
    1.7396    5.4183   -5.1696 H   0  0  0  1  0  0  0  0  0  0  0  0
    2.5241    4.0887   -4.2836 H   0  0  0  1  0  0  0  0  0  0  0  0
   -0.6577    5.9686   -4.7309 H   0  0  0  1  0  0  0  0  0  0  0  0
   -2.0779    0.0738    1.6780 H   0  0  0  1  0  0  0  0  0  0  0  0
   -0.0975    3.8550    1.6802 H   0  0  0  1  0  0  0  0  0  0  0  0
   -4.0157    2.7232   -2.7303 H   0  0  0  1  0  0  0  0  0  0  0  0
   -6.1842    2.6500   -1.1216 H   0  0  0  1  0  0  0  0  0  0  0  0
   -5.6671    0.9296    0.7860 H   0  0  0  1  0  0  0  0  0  0  0  0
   -4.6544    1.2055    5.5794 H   0  0  0  1  0  0  0  0  0  0  0  0
   -3.6809    2.5310    5.2358 H   0  0  0  1  0  0  0  0  0  0  0  0
  1  3  2  0  0  0  0
  1  4  2  0  0  0  0
  1  7  1  0  0  0  0
  1 15  1  0  0  0  0
  2 18  4  0  0  0  0
  2 20  4  0  0  0  0
  5 16  4  0  0  0  0
  5 22  4  0  0  0  0
  6 23  2  0  0  0  0
  7 10  1  0  0  0  0
  7 12  1  0  0  0  0
  8 23  1  0  0  0  0
  8 42  1  0  0  0  0
  8 43  1  0  0  0  0
  9 10  1  0  0  0  0
  9 11  1  0  0  0  0
  9 24  1  0  0  0  0
  9 25  1  0  0  0  0
 10 26  1  0  0  0  0
 10 27  1  0  0  0  0
 11 13  1  0  0  0  0
 11 14  1  0  0  0  0
 11 28  1  0  0  0  0
 12 16  1  0  0  0  0
 12 29  1  0  0  0  0
 12 30  1  0  0  0  0
 13 33  1  0  0  0  0
 13 34  1  0  0  0  0
 13 35  1  0  0  0  0
 14 31  1  0  0  0  0
 14 32  1  0  0  0  0
 14 36  1  0  0  0  0
 15 17  4  0  0  0  0
 15 18  4  0  0  0  0
 16 19  4  0  0  0  0
 17 20  4  0  0  0  0
 17 37  1  0  0  0  0
 18 38  1  0  0  0  0
 19 21  4  0  0  0  0
 19 39  1  0  0  0  0
 20 23  1  0  0  0  0
 21 22  4  0  0  0  0
 21 40  1  0  0  0  0
 22 41  1  0  0  0  0
M  END
> <Activity>
0.01

> <Mapped(file=2032.csv.activities,property=Cached(PUBCHEM_COMPOUND_CID))>
100

> <MatchIndices>
146 

> <PUBCHEM_ATOM_DEF_STEREO_COUNT>
0

> <PUBCHEM_ATOM_UDEF_STEREO_COUNT>
0

> <PUBCHEM_BONDANNOTATIONS>
15  17  8
15  18  8
16  19  8
17  20  8
19  21  8
2  18  8
2  20  8
21  22  8
5  16  8
5  22  8

> <PUBCHEM_BOND_DEF_STEREO_COUNT>
0

> <PUBCHEM_BOND_UDEF_STEREO_COUNT>
0

> <PUBCHEM_CACTVS_COMPLEXITY>
504

> <PUBCHEM_CACTVS_HBOND_ACCEPTOR>
6

> <PUBCHEM_CACTVS_HBOND_DONOR>
1

> <PUBCHEM_CACTVS_ROTATABLE_BOND>
8

> <PUBCHEM_CACTVS_SUBSKEYS>
AAADceBzOABgAAAAAAAAAAAAAAAAASJAAAAAAAAAAAAAAAAB4AAAHgQQQAAADQTl0AayBYJABEqMAKlSkHDDCJAkKBBIiBmODMgOJjKktTuHGSjkwBG4qYaYEQIIAAAAAAAAAAAAAAAAAAAAAAAAAAAAAA==

> <PUBCHEM_CACTVS_TAUTO_COUNT>
2

> <PUBCHEM_CACTVS_TPSA>
130

> <PUBCHEM_COMPONENT_COUNT>
1

> <PUBCHEM_COMPOUND_CANONICALIZED>
1

> <PUBCHEM_COMPOUND_CID>
20937323

> <PUBCHEM_COORDINATE_TYPE>
1
5
255

> <PUBCHEM_EXACT_MASS>
356.086449

> <PUBCHEM_HEAVY_ATOM_COUNT>
23

> <PUBCHEM_ISOTOPIC_ATOM_COUNT>
0

> <PUBCHEM_IUPAC_CAS_NAME>
4-[2-furanylmethyl(3-methylbutyl)sulfamoyl]-2-thiophenecarboxamide

> <PUBCHEM_IUPAC_INCHI>
InChI=1S/C15H20N2O4S2/c1-11(2)5-6-17(9-12-4-3-7-21-12)23(19,20)13-8-14(15(16)18)22-10-13/h3-4,7-8,10-11H,5-6,9H2,1-2H3,(H2,16,18)

> <PUBCHEM_IUPAC_INCHIKEY>
PGJVREKOFMVHCC-UHFFFAOYSA-N

> <PUBCHEM_IUPAC_NAME>
4-[furan-2-ylmethyl(3-methylbutyl)sulfamoyl]thiophene-2-carboxamide

> <PUBCHEM_IUPAC_OPENEYE_NAME>
4-[2-furylmethyl(isopentyl)sulfamoyl]thiophene-2-carboxamide

> <PUBCHEM_IUPAC_SYSTEMATIC_NAME>
4-[furan-2-ylmethyl(3-methylbutyl)sulfamoyl]thiophene-2-carboxamide

> <PUBCHEM_IUPAC_TRADITIONAL_NAME>
4-[2-furfuryl(isoamyl)sulfamoyl]thiophene-2-carboxamide

> <PUBCHEM_MOLECULAR_FORMULA>
C15H20N2O4S2

> <PUBCHEM_MOLECULAR_WEIGHT>
356.4603

> <PUBCHEM_MONOISOTOPIC_WEIGHT>
356.086449

> <PUBCHEM_OPENEYE_CAN_SMILES>
CC(C)CCN(CC1=CC=CO1)S(=O)(=O)C2=CSC(=C2)C(=O)N

> <PUBCHEM_OPENEYE_ISO_SMILES>
CC(C)CCN(CC1=CC=CO1)S(=O)(=O)C2=CSC(=C2)C(=O)N

> <PUBCHEM_TOTAL_CHARGE>
0

> <PUBCHEM_XLOGP3_AA>
2.2

$$$$
Largest isolated from Written by BCL::WriteToMDL,933649
JMcorina  04211410293D 1   1.00000     0.00000 
CORINA 3.49 0026  01.06.2011
 47 48  0  0  0  0  0  0  0  0999 V2000
   -0.0225    1.8057    0.0120 S   0  0  0  1  0  0  0  0  0  0  0  0
    7.5198    7.0009   -2.6436 O   0  0  0  1  0  0  0  0  0  0  0  0
    2.2902    3.3495   -0.0018 O   0  0  0  1  0  0  0  0  0  0  0  0
    6.1159    5.6368   -3.6893 O   0  0  0  1  0  0  0  0  0  0  0  0
    6.0899    5.5792   -1.4697 N   0  0  0  1  0  0  0  0  0  0  0  0
    3.8074    1.8446   -0.0244 N   0  0  0  1  0  0  0  0  0  0  0  0
    2.6699    1.2436   -0.0168 N   0  0  0  1  0  0  0  0  0  0  0  0
    7.9776    7.4694   -3.9395 C   0  0  0  1  0  0  0  0  0  0  0  0
    6.8014    8.0763   -4.7070 C   0  0  0  1  0  0  0  0  0  0  0  0
    9.0615    8.5314   -3.7441 C   0  0  0  1  0  0  0  0  0  0  0  0
    8.5523    6.2941   -4.7328 C   0  0  0  1  0  0  0  0  0  0  0  0
    5.0449    4.5525   -1.4648 C   0  0  0  1  0  0  0  0  0  0  0  0
    4.6950    4.1879   -0.0207 C   0  0  0  1  0  0  0  0  0  0  0  0
    6.5594    6.0574   -2.6391 C   0  0  0  1  0  0  0  0  0  0  0  0
    3.6200    3.1317   -0.0157 C   0  0  0  1  0  0  0  0  0  0  0  0
   -1.4117   -0.5257    0.0127 C   0  0  0  1  0  0  0  0  0  0  0  0
    0.0021   -0.0041    0.0020 C   0  0  0  1  0  0  0  0  0  0  0  0
   -4.0053   -1.4830    0.0323 C   0  0  0  1  0  0  0  0  0  0  0  0
   -2.0716   -0.7585   -1.1795 C   0  0  0  1  0  0  0  0  0  0  0  0
   -2.0468   -0.7767    1.2146 C   0  0  0  1  0  0  0  0  0  0  0  0
   -3.3685   -1.2369   -1.1696 C   0  0  0  1  0  0  0  0  0  0  0  0
   -3.3436   -1.2552    1.2245 C   0  0  0  1  0  0  0  0  0  0  0  0
    1.7084    2.1353   -0.0028 C   0  0  0  1  0  0  0  0  0  0  0  0
   -5.4192   -2.0046    0.0430 C   0  0  0  1  0  0  0  0  0  0  0  0
    6.3920    8.9136   -4.1419 H   0  0  0  1  0  0  0  0  0  0  0  0
    7.1451    8.4280   -5.6798 H   0  0  0  1  0  0  0  0  0  0  0  0
    6.0292    7.3197   -4.8462 H   0  0  0  1  0  0  0  0  0  0  0  0
    9.8994    8.0991   -3.1973 H   0  0  0  1  0  0  0  0  0  0  0  0
    9.4051    8.8831   -4.7169 H   0  0  0  1  0  0  0  0  0  0  0  0
    8.6521    9.3687   -3.1789 H   0  0  0  1  0  0  0  0  0  0  0  0
    7.7801    5.5375   -4.8720 H   0  0  0  1  0  0  0  0  0  0  0  0
    8.8959    6.6458   -5.7056 H   0  0  0  1  0  0  0  0  0  0  0  0
    9.3902    5.8618   -4.1860 H   0  0  0  1  0  0  0  0  0  0  0  0
    4.1571    4.9353   -1.9683 H   0  0  0  1  0  0  0  0  0  0  0  0
    5.4045    3.6656   -1.9866 H   0  0  0  1  0  0  0  0  0  0  0  0
    5.5828    3.8051    0.4827 H   0  0  0  1  0  0  0  0  0  0  0  0
    4.3354    5.0748    0.5010 H   0  0  0  1  0  0  0  0  0  0  0  0
    6.4440    5.9149   -0.6314 H   0  0  0  1  0  0  0  0  0  0  0  0
    0.5123   -0.3556   -0.8948 H   0  0  0  1  0  0  0  0  0  0  0  0
    0.5293   -0.3651    0.8851 H   0  0  0  1  0  0  0  0  0  0  0  0
   -1.5740   -0.5663   -2.1185 H   0  0  0  1  0  0  0  0  0  0  0  0
   -1.5295   -0.5993    2.1460 H   0  0  0  1  0  0  0  0  0  0  0  0
   -3.8855   -1.4149   -2.1010 H   0  0  0  1  0  0  0  0  0  0  0  0
   -3.8412   -1.4474    2.1635 H   0  0  0  1  0  0  0  0  0  0  0  0
   -5.4044   -3.0944    0.0367 H   0  0  0  1  0  0  0  0  0  0  0  0
   -5.9292   -1.6533    0.9400 H   0  0  0  1  0  0  0  0  0  0  0  0
   -5.9464   -1.6432   -0.8399 H   0  0  0  1  0  0  0  0  0  0  0  0
  1 17  1  0  0  0  0
  1 23  1  0  0  0  0
  2  8  1  0  0  0  0
  2 14  1  0  0  0  0
  3 15  4  0  0  0  0
  3 23  4  0  0  0  0
  4 14  2  0  0  0  0
  5 12  1  0  0  0  0
  5 14  1  0  0  0  0
  5 38  1  0  0  0  0
  6  7  4  0  0  0  0
  6 15  4  0  0  0  0
  7 23  4  0  0  0  0
  8  9  1  0  0  0  0
  8 10  1  0  0  0  0
  8 11  1  0  0  0  0
  9 25  1  0  0  0  0
  9 26  1  0  0  0  0
  9 27  1  0  0  0  0
 10 28  1  0  0  0  0
 10 29  1  0  0  0  0
 10 30  1  0  0  0  0
 11 31  1  0  0  0  0
 11 32  1  0  0  0  0
 11 33  1  0  0  0  0
 12 13  1  0  0  0  0
 12 34  1  0  0  0  0
 12 35  1  0  0  0  0
 13 15  1  0  0  0  0
 13 36  1  0  0  0  0
 13 37  1  0  0  0  0
 16 17  1  0  0  0  0
 16 19  4  0  0  0  0
 16 20  4  0  0  0  0
 17 39  1  0  0  0  0
 17 40  1  0  0  0  0
 18 21  4  0  0  0  0
 18 22  4  0  0  0  0
 18 24  1  0  0  0  0
 19 21  4  0  0  0  0
 19 41  1  0  0  0  0
 20 22  4  0  0  0  0
 20 42  1  0  0  0  0
 21 43  1  0  0  0  0
 22 44  1  0  0  0  0
 24 45  1  0  0  0  0
 24 46  1  0  0  0  0
 24 47  1  0  0  0  0
M  END
> <Activity>
0.01

> <Mapped(file=2032.csv.activities,property=Cached(PUBCHEM_COMPOUND_CID))>
100

> <MatchIndices>
33 

> <PUBCHEM_ATOM_DEF_STEREO_COUNT>
0

> <PUBCHEM_ATOM_UDEF_STEREO_COUNT>
0

> <PUBCHEM_BONDANNOTATIONS>
16  19  8
16  20  8
18  21  8
18  22  8
19  21  8
20  22  8
3  15  8
3  23  8
6  15  8
6  7  8
7  23  8

> <PUBCHEM_BOND_DEF_STEREO_COUNT>
0

> <PUBCHEM_BOND_UDEF_STEREO_COUNT>
0

> <PUBCHEM_CACTVS_COMPLEXITY>
395

> <PUBCHEM_CACTVS_HBOND_ACCEPTOR>
4

> <PUBCHEM_CACTVS_HBOND_DONOR>
1

> <PUBCHEM_CACTVS_ROTATABLE_BOND>
8

> <PUBCHEM_CACTVS_SUBSKEYS>
AAADceB7MABAAAAAAAAAAAAAAAAAAWAAAAAwAAAAAAAAAAABwAAAHgQYAAAADETF2gSyCILABEiqAiFyGAASAABoABAaiIE4AIkIICqgURCMIAAingAIiAcAgAAOQAAAAAAAAACAAAAAAAAAAAAAAAAAAA==

> <PUBCHEM_CACTVS_TAUTO_COUNT>
2

> <PUBCHEM_CACTVS_TPSA>
103

> <PUBCHEM_COMPONENT_COUNT>
1

> <PUBCHEM_COMPOUND_CANONICALIZED>
1

> <PUBCHEM_COMPOUND_CID>
933649

> <PUBCHEM_COORDINATE_TYPE>
1
5
255

> <PUBCHEM_EXACT_MASS>
349.146013

> <PUBCHEM_HEAVY_ATOM_COUNT>
24

> <PUBCHEM_ISOTOPIC_ATOM_COUNT>
0

> <PUBCHEM_IUPAC_CAS_NAME>
N-[2-[5-[(4-methylphenyl)methylthio]-1,3,4-oxadiazol-2-yl]ethyl]carbamic acid tert-butyl ester

> <PUBCHEM_IUPAC_INCHI>
InChI=1S/C17H23N3O3S/c1-12-5-7-13(8-6-12)11-24-16-20-19-14(22-16)9-10-18-15(21)23-17(2,3)4/h5-8H,9-11H2,1-4H3,(H,18,21)

> <PUBCHEM_IUPAC_INCHIKEY>
VPRHBGRMVPOWOV-UHFFFAOYSA-N

> <PUBCHEM_IUPAC_NAME>
tert-butyl N-[2-[5-[(4-methylphenyl)methylsulfanyl]-1,3,4-oxadiazol-2-yl]ethyl]carbamate

> <PUBCHEM_IUPAC_OPENEYE_NAME>
tert-butyl N-[2-[5-(p-tolylmethylsulfanyl)-1,3,4-oxadiazol-2-yl]ethyl]carbamate

> <PUBCHEM_IUPAC_SYSTEMATIC_NAME>
tert-butyl N-[2-[5-[(4-methylphenyl)methylsulfanyl]-1,3,4-oxadiazol-2-yl]ethyl]carbamate

> <PUBCHEM_IUPAC_TRADITIONAL_NAME>
N-[2-[5-[(4-methylbenzyl)thio]-1,3,4-oxadiazol-2-yl]ethyl]carbamic acid tert-butyl ester

> <PUBCHEM_MOLECULAR_FORMULA>
C17H23N3O3S

> <PUBCHEM_MOLECULAR_WEIGHT>
349.44782

> <PUBCHEM_MONOISOTOPIC_WEIGHT>
349.146013

> <PUBCHEM_OPENEYE_CAN_SMILES>
CC1=CC=C(C=C1)CSC2=NN=C(O2)CCNC(=O)OC(C)(C)C

> <PUBCHEM_OPENEYE_ISO_SMILES>
CC1=CC=C(C=C1)CSC2=NN=C(O2)CCNC(=O)OC(C)(C)C

> <PUBCHEM_TOTAL_CHARGE>
0

> <PUBCHEM_XLOGP3_AA>
3.5

$$$$
Largest isolated from Written by BCL::WriteToMDL,2930814
JMcorina  04211410293D 1   1.00000     0.00000 
CORINA 3.49 0026  01.06.2011
 38 39  0  0  0  0  0  0  0  0999 V2000
   -2.8350   -0.0166    4.5809 Br  0  0  0  1  0  0  0  0  0  0  0  0
   -0.0172    1.4168    0.0098 S   0  0  0  1  0  0  0  0  0  0  0  0
   -1.5665    2.2299   -3.9563 O   0  0  0  1  0  0  0  0  0  0  0  0
    0.0021   -0.0041    0.0020 O   0  0  0  1  0  0  0  0  0  0  0  0
    1.1617    2.2101    0.0028 O   0  0  0  1  0  0  0  0  0  0  0  0
   -0.6598    4.1870    0.8658 O   0  0  0  1  0  0  0  0  0  0  0  0
   -0.9002    1.8797   -1.3124 N   0  0  0  1  0  0  0  0  0  0  0  0
   -0.7188    3.2091   -1.9168 C   0  0  0  1  0  0  0  0  0  0  0  0
   -1.8891    0.9738   -1.9179 C   0  0  0  1  0  0  0  0  0  0  0  0
   -0.5077    3.0300   -3.4245 C   0  0  0  1  0  0  0  0  0  0  0  0
   -1.6210    0.9035   -3.4256 C   0  0  0  1  0  0  0  0  0  0  0  0
   -2.7472    0.1255   -4.1092 C   0  0  0  1  0  0  0  0  0  0  0  0
    0.8325    2.3353   -3.6740 C   0  0  0  1  0  0  0  0  0  0  0  0
   -0.9297    1.8941    1.4396 C   0  0  0  1  0  0  0  0  0  0  0  0
   -1.1488    3.2375    1.7065 C   0  0  0  1  0  0  0  0  0  0  0  0
   -1.4321    0.9304    2.2926 C   0  0  0  1  0  0  0  0  0  0  0  0
   -1.8676    3.6107    2.8330 C   0  0  0  1  0  0  0  0  0  0  0  0
   -2.1485    1.3046    3.4152 C   0  0  0  1  0  0  0  0  0  0  0  0
   -2.3634    2.6444    3.6863 C   0  0  0  1  0  0  0  0  0  0  0  0
   -0.9238    5.5503    1.2031 C   0  0  0  1  0  0  0  0  0  0  0  0
   -1.6062    3.8169   -1.7400 H   0  0  0  1  0  0  0  0  0  0  0  0
    0.1531    3.6954   -1.4793 H   0  0  0  1  0  0  0  0  0  0  0  0
   -1.7922   -0.0202   -1.4811 H   0  0  0  1  0  0  0  0  0  0  0  0
   -2.8943    1.3565   -1.7412 H   0  0  0  1  0  0  0  0  0  0  0  0
   -0.5091    4.0055   -3.9108 H   0  0  0  1  0  0  0  0  0  0  0  0
   -0.6703    0.4009   -3.6033 H   0  0  0  1  0  0  0  0  0  0  0  0
   -2.5582    0.0798   -5.1817 H   0  0  0  1  0  0  0  0  0  0  0  0
   -2.7881   -0.8856   -3.7041 H   0  0  0  1  0  0  0  0  0  0  0  0
   -3.6975    0.6280   -3.9288 H   0  0  0  1  0  0  0  0  0  0  0  0
    0.9798    2.2043   -4.7460 H   0  0  0  1  0  0  0  0  0  0  0  0
    1.6392    2.9459   -3.2683 H   0  0  0  1  0  0  0  0  0  0  0  0
    0.8332    1.3610   -3.1853 H   0  0  0  1  0  0  0  0  0  0  0  0
   -1.2658   -0.1158    2.0826 H   0  0  0  1  0  0  0  0  0  0  0  0
   -2.0391    4.6562    3.0428 H   0  0  0  1  0  0  0  0  0  0  0  0
   -2.9226    2.9345    4.5634 H   0  0  0  1  0  0  0  0  0  0  0  0
   -2.0009    5.7145    1.2355 H   0  0  0  1  0  0  0  0  0  0  0  0
   -0.4927    5.7731    2.1791 H   0  0  0  1  0  0  0  0  0  0  0  0
   -0.4792    6.2030    0.4518 H   0  0  0  1  0  0  0  0  0  0  0  0
  1 18  1  0  0  0  0
  2  4  2  0  0  0  0
  2  5  2  0  0  0  0
  2  7  1  0  0  0  0
  2 14  1  0  0  0  0
  3 10  1  0  0  0  0
  3 11  1  0  0  0  0
  6 15  1  0  0  0  0
  6 20  1  0  0  0  0
  7  8  1  0  0  0  0
  7  9  1  0  0  0  0
  8 10  1  0  0  0  0
  8 21  1  0  0  0  0
  8 22  1  0  0  0  0
  9 11  1  0  0  0  0
  9 23  1  0  0  0  0
  9 24  1  0  0  0  0
 10 13  1  0  0  0  0
 10 25  1  0  0  0  0
 11 12  1  0  0  0  0
 11 26  1  0  0  0  0
 12 27  1  0  0  0  0
 12 28  1  0  0  0  0
 12 29  1  0  0  0  0
 13 30  1  0  0  0  0
 13 31  1  0  0  0  0
 13 32  1  0  0  0  0
 14 15  4  0  0  0  0
 14 16  4  0  0  0  0
 15 17  4  0  0  0  0
 16 18  4  0  0  0  0
 16 33  1  0  0  0  0
 17 19  4  0  0  0  0
 17 34  1  0  0  0  0
 18 19  4  0  0  0  0
 19 35  1  0  0  0  0
 20 36  1  0  0  0  0
 20 37  1  0  0  0  0
 20 38  1  0  0  0  0
M  END
> <Activity>
0.01

> <Mapped(file=2032.csv.activities,property=Cached(PUBCHEM_COMPOUND_CID))>
100

> <MatchIndices>
131 

> <PUBCHEM_ATOM_DEF_STEREO_COUNT>
0

> <PUBCHEM_ATOM_UDEF_STEREO_COUNT>
2

> <PUBCHEM_BONDANNOTATIONS>
10  25  3
11  26  3
14  15  8
14  16  8
15  17  8
16  18  8
17  19  8
18  19  8

> <PUBCHEM_BOND_DEF_STEREO_COUNT>
0

> <PUBCHEM_BOND_UDEF_STEREO_COUNT>
0

> <PUBCHEM_CACTVS_COMPLEXITY>
415

> <PUBCHEM_CACTVS_HBOND_ACCEPTOR>
5

> <PUBCHEM_CACTVS_HBOND_DONOR>
0

> <PUBCHEM_CACTVS_ROTATABLE_BOND>
3

> <PUBCHEM_CACTVS_SUBSKEYS>
AAADceByOABAEAAAAAAAAAAAAAAAAAAAAAA8QAAAAAAAAAABAAAAHgRAQAABqBTh0AYyB4IABAKAACBCAHBCCBAgIAQIiBoOCKgOJiKEMRqHMCAkwBGYqheAQAAAABAAAAgAIAAAIAAAEABAAAAAAAAAAA==

> <PUBCHEM_CACTVS_TAUTO_COUNT>
1

> <PUBCHEM_CACTVS_TPSA>
64.2

> <PUBCHEM_COMPONENT_COUNT>
1

> <PUBCHEM_COMPOUND_CANONICALIZED>
1

> <PUBCHEM_COMPOUND_CID>
2930814

> <PUBCHEM_COORDINATE_TYPE>
1
5
255

> <PUBCHEM_EXACT_MASS>
363.013991

> <PUBCHEM_HEAVY_ATOM_COUNT>
20

> <PUBCHEM_ISOTOPIC_ATOM_COUNT>
0

> <PUBCHEM_IUPAC_CAS_NAME>
4-(5-bromo-2-methoxyphenyl)sulfonyl-2,6-dimethylmorpholine

> <PUBCHEM_IUPAC_INCHI>
InChI=1S/C13H18BrNO4S/c1-9-7-15(8-10(2)19-9)20(16,17)13-6-11(14)4-5-12(13)18-3/h4-6,9-10H,7-8H2,1-3H3

> <PUBCHEM_IUPAC_INCHIKEY>
KEZRPKKNAHONOX-UHFFFAOYSA-N

> <PUBCHEM_IUPAC_NAME>
4-(5-bromo-2-methoxyphenyl)sulfonyl-2,6-dimethylmorpholine

> <PUBCHEM_IUPAC_OPENEYE_NAME>
4-(5-bromo-2-methoxy-phenyl)sulfonyl-2,6-dimethyl-morpholine

> <PUBCHEM_IUPAC_SYSTEMATIC_NAME>
4-(5-bromanyl-2-methoxy-phenyl)sulfonyl-2,6-dimethyl-morpholine

> <PUBCHEM_IUPAC_TRADITIONAL_NAME>
4-(5-bromo-2-methoxy-phenyl)sulfonyl-2,6-dimethyl-morpholine

> <PUBCHEM_MOLECULAR_FORMULA>
C13H18BrNO4S

> <PUBCHEM_MOLECULAR_WEIGHT>
364.25532

> <PUBCHEM_MONOISOTOPIC_WEIGHT>
363.013991

> <PUBCHEM_OPENEYE_CAN_SMILES>
CC1CN(CC(O1)C)S(=O)(=O)C2=C(C=CC(=C2)Br)OC

> <PUBCHEM_OPENEYE_ISO_SMILES>
CC1CN(CC(O1)C)S(=O)(=O)C2=C(C=CC(=C2)Br)OC

> <PUBCHEM_TOTAL_CHARGE>
0

> <PUBCHEM_XLOGP3_AA>
2.2

$$$$
Largest isolated from Written by BCL::WriteToMDL,3724094
JMcorina  04211410293D 1   1.00000     0.00000 
CORINA 3.49 0026  01.06.2011
 43 46  0  0  0  0  0  0  0  0999 V2000
    0.1098    1.2405    0.1955 O   0  0  0  1  0  0  0  0  0  0  0  0
   -2.1004   -4.0395   -1.3923 N   0  0  0  1  0  0  0  0  0  0  0  0
   -0.8046   -6.0349   -2.9558 N   0  0  0  1  0  0  0  0  0  0  0  0
   -1.1089   -2.0781   -0.5806 N   0  0  0  1  0  0  0  0  0  0  0  0
   -5.4615   -3.9707   -0.2762 N   0  0  0  1  0  0  0  0  0  0  0  0
   -3.4469   -1.2629    0.6373 C   0  0  0  1  0  0  0  0  0  0  0  0
   -2.3243   -0.4976    0.7233 C   0  0  0  1  0  0  0  0  0  0  0  0
   -4.7542   -0.8739    1.2708 C   0  0  0  1  0  0  0  0  0  0  0  0
   -2.2864    0.8073    1.4729 C   0  0  0  1  0  0  0  0  0  0  0  0
   -4.5367    0.2047    2.3311 C   0  0  0  1  0  0  0  0  0  0  0  0
   -3.7018    1.3310    1.7101 C   0  0  0  1  0  0  0  0  0  0  0  0
   -2.1755   -2.8523   -0.6848 C   0  0  0  1  0  0  0  0  0  0  0  0
   -1.1267   -4.9556   -0.7821 C   0  0  0  1  0  0  0  0  0  0  0  0
   -1.7736   -3.7918   -2.8035 C   0  0  0  1  0  0  0  0  0  0  0  0
   -3.3853   -2.4723   -0.0793 C   0  0  0  1  0  0  0  0  0  0  0  0
   -1.1478   -0.9344    0.0928 C   0  0  0  1  0  0  0  0  0  0  0  0
   -1.1315   -6.2826   -1.5446 C   0  0  0  1  0  0  0  0  0  0  0  0
   -1.7784   -5.1189   -3.5660 C   0  0  0  1  0  0  0  0  0  0  0  0
    0.0688   -0.1064    0.1809 C   0  0  0  1  0  0  0  0  0  0  0  0
   -4.5431   -3.3079   -0.1891 C   0  0  0  1  0  0  0  0  0  0  0  0
    1.3470   -0.5695    0.2608 C   0  0  0  1  0  0  0  0  0  0  0  0
    2.1837    0.5601    0.3258 C   0  0  0  1  0  0  0  0  0  0  0  0
    1.3857    1.6467    0.2830 C   0  0  0  1  0  0  0  0  0  0  0  0
   -5.4266   -0.4924    0.5025 H   0  0  0  1  0  0  0  0  0  0  0  0
   -5.2028   -1.7511    1.7371 H   0  0  0  1  0  0  0  0  0  0  0  0
   -1.7934    0.6561    2.4332 H   0  0  0  1  0  0  0  0  0  0  0  0
   -1.7248    1.5392    0.8924 H   0  0  0  1  0  0  0  0  0  0  0  0
   -5.4994    0.5982    2.6573 H   0  0  0  1  0  0  0  0  0  0  0  0
   -4.0052   -0.2196    3.1828 H   0  0  0  1  0  0  0  0  0  0  0  0
   -3.6691    2.1818    2.3908 H   0  0  0  1  0  0  0  0  0  0  0  0
   -4.1441    1.6360    0.7617 H   0  0  0  1  0  0  0  0  0  0  0  0
   -2.5158   -3.1210   -3.2364 H   0  0  0  1  0  0  0  0  0  0  0  0
   -0.1318   -4.5127   -0.8291 H   0  0  0  1  0  0  0  0  0  0  0  0
   -1.3973   -5.1332    0.2587 H   0  0  0  1  0  0  0  0  0  0  0  0
   -0.7861   -3.3358   -2.8735 H   0  0  0  1  0  0  0  0  0  0  0  0
   -2.1190   -6.7386   -1.4746 H   0  0  0  1  0  0  0  0  0  0  0  0
   -0.3893   -6.9534   -1.1117 H   0  0  0  1  0  0  0  0  0  0  0  0
   -1.5078   -4.9412   -4.6068 H   0  0  0  1  0  0  0  0  0  0  0  0
   -2.7733   -5.5617   -3.5190 H   0  0  0  1  0  0  0  0  0  0  0  0
    0.1351   -5.6805   -3.0525 H   0  0  0  1  0  0  0  0  0  0  0  0
    1.6583   -1.6036    0.2724 H   0  0  0  1  0  0  0  0  0  0  0  0
    3.2614    0.5575    0.3969 H   0  0  0  1  0  0  0  0  0  0  0  0
    1.7185    2.6737    0.3136 H   0  0  0  1  0  0  0  0  0  0  0  0
  1 19  4  0  0  0  0
  1 23  4  0  0  0  0
  2 12  1  0  0  0  0
  2 13  1  0  0  0  0
  2 14  1  0  0  0  0
  3 17  1  0  0  0  0
  3 18  1  0  0  0  0
  3 40  1  0  0  0  0
  4 12  4  0  0  0  0
  4 16  4  0  0  0  0
  5 20  3  0  0  0  0
  6  7  4  0  0  0  0
  6  8  1  0  0  0  0
  6 15  4  0  0  0  0
  7  9  1  0  0  0  0
  7 16  4  0  0  0  0
  8 10  1  0  0  0  0
  8 24  1  0  0  0  0
  8 25  1  0  0  0  0
  9 11  1  0  0  0  0
  9 26  1  0  0  0  0
  9 27  1  0  0  0  0
 10 11  1  0  0  0  0
 10 28  1  0  0  0  0
 10 29  1  0  0  0  0
 11 30  1  0  0  0  0
 11 31  1  0  0  0  0
 12 15  4  0  0  0  0
 13 17  1  0  0  0  0
 13 33  1  0  0  0  0
 13 34  1  0  0  0  0
 14 18  1  0  0  0  0
 14 32  1  0  0  0  0
 14 35  1  0  0  0  0
 15 20  1  0  0  0  0
 16 19  1  0  0  0  0
 17 36  1  0  0  0  0
 17 37  1  0  0  0  0
 18 38  1  0  0  0  0
 18 39  1  0  0  0  0
 19 21  4  0  0  0  0
 21 22  4  0  0  0  0
 21 41  1  0  0  0  0
 22 23  4  0  0  0  0
 22 42  1  0  0  0  0
 23 43  1  0  0  0  0
M  END
> <Activity>
0.01

> <Mapped(file=2032.csv.activities,property=Cached(PUBCHEM_COMPOUND_CID))>
100

> <MatchIndices>
179 

> <PUBCHEM_ATOM_DEF_STEREO_COUNT>
0

> <PUBCHEM_ATOM_UDEF_STEREO_COUNT>
0

> <PUBCHEM_BONDANNOTATIONS>
1  19  8
1  23  8
12  15  8
19  21  8
21  22  8
22  23  8
4  12  8
4  16  8
6  15  8
6  7  8
7  16  8

> <PUBCHEM_BOND_DEF_STEREO_COUNT>
0

> <PUBCHEM_BOND_UDEF_STEREO_COUNT>
0

> <PUBCHEM_CACTVS_COMPLEXITY>
455

> <PUBCHEM_CACTVS_HBOND_ACCEPTOR>
4

> <PUBCHEM_CACTVS_HBOND_DONOR>
1

> <PUBCHEM_CACTVS_ROTATABLE_BOND>
2

> <PUBCHEM_CACTVS_SUBSKEYS>
AAADceB7oAAAAAAAAAAAAAAAAAAAASAAAAA8WIAAAAAAAACx4AAAHgAQAAAADAzhngYxtJPIFEC4B65y5ASiiCknICAJmKGuTNiO5vLEvbuXOSjs0BPY6a+Y2fOegAAAAAAAAAAAAAAAACAAAAAAAAAAAA==

> <PUBCHEM_CACTVS_TAUTO_COUNT>
1

> <PUBCHEM_CACTVS_TPSA>
65.1

> <PUBCHEM_COMPONENT_COUNT>
1

> <PUBCHEM_COMPOUND_CANONICALIZED>
1

> <PUBCHEM_COMPOUND_CID>
3724094

> <PUBCHEM_COORDINATE_TYPE>
1
5
255

> <PUBCHEM_EXACT_MASS>
308.163711

> <PUBCHEM_HEAVY_ATOM_COUNT>
23

> <PUBCHEM_ISOTOPIC_ATOM_COUNT>
0

> <PUBCHEM_IUPAC_CAS_NAME>
1-(2-furanyl)-3-(1-piperazinyl)-5,6,7,8-tetrahydroisoquinoline-4-carbonitrile

> <PUBCHEM_IUPAC_INCHI>
InChI=1S/C18H20N4O/c19-12-15-13-4-1-2-5-14(13)17(16-6-3-11-23-16)21-18(15)22-9-7-20-8-10-22/h3,6,11,20H,1-2,4-5,7-10H2

> <PUBCHEM_IUPAC_INCHIKEY>
NWGIJBRDVFIBHQ-UHFFFAOYSA-N

> <PUBCHEM_IUPAC_NAME>
1-(furan-2-yl)-3-piperazin-1-yl-5,6,7,8-tetrahydroisoquinoline-4-carbonitrile

> <PUBCHEM_IUPAC_OPENEYE_NAME>
1-(2-furyl)-3-piperazin-1-yl-5,6,7,8-tetrahydroisoquinoline-4-carbonitrile

> <PUBCHEM_IUPAC_SYSTEMATIC_NAME>
1-(furan-2-yl)-3-piperazin-1-yl-5,6,7,8-tetrahydroisoquinoline-4-carbonitrile

> <PUBCHEM_IUPAC_TRADITIONAL_NAME>
1-(2-furyl)-3-piperazino-5,6,7,8-tetrahydroisoquinoline-4-carbonitrile

> <PUBCHEM_MOLECULAR_FORMULA>
C18H20N4O

> <PUBCHEM_MOLECULAR_WEIGHT>
308.3776

> <PUBCHEM_MONOISOTOPIC_WEIGHT>
308.163711

> <PUBCHEM_OPENEYE_CAN_SMILES>
C1CCC2=C(N=C(C(=C2C1)C#N)N3CCNCC3)C4=CC=CO4

> <PUBCHEM_OPENEYE_ISO_SMILES>
C1CCC2=C(N=C(C(=C2C1)C#N)N3CCNCC3)C4=CC=CO4

> <PUBCHEM_TOTAL_CHARGE>
0

> <PUBCHEM_XLOGP3_AA>
2.5

$$$$
Largest isolated from Written by BCL::WriteToMDL,11948866
JMcorina  04211410293D 1   1.00000     0.00000 
CORINA 3.49 0026  01.06.2011
 44 44  0  0  0  0  0  0  0  0999 V2000
   -0.0225    1.8097    0.0120 S   0  0  0  1  0  0  0  0  0  0  0  0
    4.9382    0.5823   -0.0311 O   0  0  0  1  0  0  0  0  0  0  0  0
    1.1397    4.5511    0.0147 O   0  0  0  1  0  0  0  0  0  0  0  0
    7.7842    3.6062   -1.4870 N   0  0  0  1  0  0  0  0  0  0  0  0
   -1.4333   -0.5336    0.0129 C   0  0  0  1  0  0  0  0  0  0  0  0
   -1.4126   -2.0635    0.0045 C   0  0  0  1  0  0  0  0  0  0  0  0
    0.0021   -0.0041    0.0020 C   0  0  0  1  0  0  0  0  0  0  0  0
   -2.8479   -2.5931    0.0153 C   0  0  0  1  0  0  0  0  0  0  0  0
    4.3808    2.8947   -0.0229 C   0  0  0  1  0  0  0  0  0  0  0  0
    5.8442    3.2543   -0.0345 C   0  0  0  1  0  0  0  0  0  0  0  0
    1.6887    2.2294   -0.0021 C   0  0  0  1  0  0  0  0  0  0  0  0
    3.9954    1.5622   -0.0215 C   0  0  0  1  0  0  0  0  0  0  0  0
    2.0795    3.5670    0.0014 C   0  0  0  1  0  0  0  0  0  0  0  0
    3.4249    3.8939   -0.0093 C   0  0  0  1  0  0  0  0  0  0  0  0
    2.6499    1.2286   -0.0109 C   0  0  0  1  0  0  0  0  0  0  0  0
   -2.8272   -4.1229    0.0069 C   0  0  0  1  0  0  0  0  0  0  0  0
    6.3577    3.2558   -1.4757 C   0  0  0  1  0  0  0  0  0  0  0  0
    4.4705   -0.7680   -0.0290 C   0  0  0  1  0  0  0  0  0  0  0  0
    1.6123    5.8996    0.0175 C   0  0  0  1  0  0  0  0  0  0  0  0
   -1.9605   -0.1726   -0.8702 H   0  0  0  1  0  0  0  0  0  0  0  0
   -1.9435   -0.1821    0.9097 H   0  0  0  1  0  0  0  0  0  0  0  0
   -0.9024   -2.4150   -0.8923 H   0  0  0  1  0  0  0  0  0  0  0  0
   -0.8854   -2.4246    0.8875 H   0  0  0  1  0  0  0  0  0  0  0  0
    0.5123   -0.3556   -0.8948 H   0  0  0  1  0  0  0  0  0  0  0  0
    0.5293   -0.3651    0.8851 H   0  0  0  1  0  0  0  0  0  0  0  0
   -3.3581   -2.2415    0.9121 H   0  0  0  1  0  0  0  0  0  0  0  0
   -3.3751   -2.2320   -0.8677 H   0  0  0  1  0  0  0  0  0  0  0  0
    5.9785    4.2448    0.4001 H   0  0  0  1  0  0  0  0  0  0  0  0
    6.4027    2.5226    0.5494 H   0  0  0  1  0  0  0  0  0  0  0  0
    3.7281    4.9305   -0.0066 H   0  0  0  1  0  0  0  0  0  0  0  0
    2.3501    0.1911   -0.0136 H   0  0  0  1  0  0  0  0  0  0  0  0
    5.7992    3.9874   -2.0596 H   0  0  0  1  0  0  0  0  0  0  0  0
    6.2234    2.2652   -1.9103 H   0  0  0  1  0  0  0  0  0  0  0  0
   -3.8498   -4.5002    0.0146 H   0  0  0  1  0  0  0  0  0  0  0  0
   -2.3170   -4.4744   -0.8899 H   0  0  0  1  0  0  0  0  0  0  0  0
   -2.3000   -4.4840    0.8900 H   0  0  0  1  0  0  0  0  0  0  0  0
    8.1472    3.6141   -2.4284 H   0  0  0  1  0  0  0  0  0  0  0  0
    7.9425    4.4923   -1.0311 H   0  0  0  1  0  0  0  0  0  0  0  0
    5.3226   -1.4476   -0.0374 H   0  0  0  1  0  0  0  0  0  0  0  0
    3.8737   -0.9444    0.8658 H   0  0  0  1  0  0  0  0  0  0  0  0
    3.8584   -0.9418   -0.9141 H   0  0  0  1  0  0  0  0  0  0  0  0
    2.2096    6.0772   -0.8769 H   0  0  0  1  0  0  0  0  0  0  0  0
    0.7628    6.5824    0.0285 H   0  0  0  1  0  0  0  0  0  0  0  0
    2.2253    6.0680    0.9030 H   0  0  0  1  0  0  0  0  0  0  0  0
  1  7  1  0  0  0  0
  1 11  1  0  0  0  0
  2 12  1  0  0  0  0
  2 18  1  0  0  0  0
  3 13  1  0  0  0  0
  3 19  1  0  0  0  0
  4 17  1  0  0  0  0
  4 37  1  0  0  0  0
  4 38  1  0  0  0  0
  5  6  1  0  0  0  0
  5  7  1  0  0  0  0
  5 20  1  0  0  0  0
  5 21  1  0  0  0  0
  6  8  1  0  0  0  0
  6 22  1  0  0  0  0
  6 23  1  0  0  0  0
  7 24  1  0  0  0  0
  7 25  1  0  0  0  0
  8 16  1  0  0  0  0
  8 26  1  0  0  0  0
  8 27  1  0  0  0  0
  9 10  1  0  0  0  0
  9 12  4  0  0  0  0
  9 14  4  0  0  0  0
 10 17  1  0  0  0  0
 10 28  1  0  0  0  0
 10 29  1  0  0  0  0
 11 13  4  0  0  0  0
 11 15  4  0  0  0  0
 12 15  4  0  0  0  0
 13 14  4  0  0  0  0
 14 30  1  0  0  0  0
 15 31  1  0  0  0  0
 16 34  1  0  0  0  0
 16 35  1  0  0  0  0
 16 36  1  0  0  0  0
 17 32  1  0  0  0  0
 17 33  1  0  0  0  0
 18 39  1  0  0  0  0
 18 40  1  0  0  0  0
 18 41  1  0  0  0  0
 19 42  1  0  0  0  0
 19 43  1  0  0  0  0
 19 44  1  0  0  0  0
M  END
> <Activity>
0.01

> <Mapped(file=2032.csv.activities,property=Cached(PUBCHEM_COMPOUND_CID))>
100

> <MatchIndices>
130 

> <PUBCHEM_ATOM_DEF_STEREO_COUNT>
0

> <PUBCHEM_ATOM_UDEF_STEREO_COUNT>
0

> <PUBCHEM_BONDANNOTATIONS>
13  16  8
13  18  8
15  17  8
15  19  8
16  19  8
17  18  8

> <PUBCHEM_BOND_DEF_STEREO_COUNT>
1

> <PUBCHEM_BOND_UDEF_STEREO_COUNT>
0

> <PUBCHEM_CACTVS_COMPLEXITY>
347

> <PUBCHEM_CACTVS_HBOND_ACCEPTOR>
8

> <PUBCHEM_CACTVS_HBOND_DONOR>
3

> <PUBCHEM_CACTVS_ROTATABLE_BOND>
11

> <PUBCHEM_CACTVS_SUBSKEYS>
AAADceB6OABAAAAAAAAAAAAAAAAAAAAAAAAwAAAAAAAAAAABAAAAHgQQCAAADATF2AayD4BABgiIAiDSCAACCAAgKBAIiJoGCMgMJiKksRuAMCAk0BEouYfw0LAOEQABBAAIIAAiAAIIABBAAAAAAAAAAA==

> <PUBCHEM_CACTVS_TAUTO_COUNT>
1

> <PUBCHEM_CACTVS_TPSA>
144

> <PUBCHEM_COMPONENT_COUNT>
2

> <PUBCHEM_COMPOUND_CANONICALIZED>
1

> <PUBCHEM_COMPOUND_CID>
11948866

> <PUBCHEM_COORDINATE_TYPE>
1
5
255

> <PUBCHEM_EXACT_MASS>
399.171559

> <PUBCHEM_HEAVY_ATOM_COUNT>
27

> <PUBCHEM_ISOTOPIC_ATOM_COUNT>
0

> <PUBCHEM_IUPAC_CAS_NAME>
(Z)-2-butenedioic acid; 2-[2,5-dimethoxy-4-(pentylthio)phenyl]ethanamine

> <PUBCHEM_IUPAC_INCHI>
InChI=1S/C15H25NO2S.C4H4O4/c1-4-5-6-9-19-15-11-13(17-2)12(7-8-16)10-14(15)18-3;5-3(6)1-2-4(7)8/h10-11H,4-9,16H2,1-3H3;1-2H,(H,5,6)(H,7,8)/b;2-1-

> <PUBCHEM_IUPAC_INCHIKEY>
BUIMMXSYSWNWBW-BTJKTKAUSA-N

> <PUBCHEM_IUPAC_NAME>
(Z)-but-2-enedioic acid; 2-(2,5-dimethoxy-4-pentylsulfanylphenyl)ethanamine

> <PUBCHEM_IUPAC_OPENEYE_NAME>
2-(2,5-dimethoxy-4-pentylsulfanyl-phenyl)ethanamine; maleic acid

> <PUBCHEM_IUPAC_SYSTEMATIC_NAME>
(Z)-but-2-enedioic acid; 2-(2,5-dimethoxy-4-pentylsulfanyl-phenyl)ethanamine

> <PUBCHEM_IUPAC_TRADITIONAL_NAME>
2-[4-(amylthio)-2,5-dimethoxy-phenyl]ethylamine; maleic acid

> <PUBCHEM_MOLECULAR_FORMULA>
C19H29NO6S

> <PUBCHEM_MOLECULAR_WEIGHT>
399.50166

> <PUBCHEM_MONOISOTOPIC_WEIGHT>
399.171559

> <PUBCHEM_OPENEYE_CAN_SMILES>
CCCCCSC1=C(C=C(C(=C1)OC)CCN)OC.C(=CC(=O)O)C(=O)O

> <PUBCHEM_OPENEYE_ISO_SMILES>
CCCCCSC1=C(C=C(C(=C1)OC)CCN)OC.C(=C\C(=O)O)\C(=O)O

> <PUBCHEM_TOTAL_CHARGE>
0

$$$$
Largest isolated from Written by BCL::WriteToMDL,24980797
JMcorina  04211410293D 1   1.00000     0.00000 
CORINA 3.49 0026  01.06.2011
 52 53  0  0  0  0  0  0  0  0999 V2000
    0.4930    0.7835    1.2411 S   0  0  0  1  0  0  0  0  0  0  0  0
   -1.5732   -2.5971    0.6950 O   0  0  0  1  0  0  0  0  0  0  0  0
   -2.3083   -4.8680   -0.4556 O   0  0  0  1  0  0  0  0  0  0  0  0
   -1.9929   -0.4326    0.8443 O   0  0  0  1  0  0  0  0  0  0  0  0
    5.3661    5.8595    2.2641 O   0  0  0  1  0  0  0  0  0  0  0  0
    1.7473    3.2560    1.6111 O   0  0  0  1  0  0  0  0  0  0  0  0
    3.9076    2.7953    1.8174 N   0  0  0  1  0  0  0  0  0  0  0  0
    5.4129    4.6558    2.1599 N   0  0  0  1  0  0  0  0  0  0  0  0
   -4.4785   -4.2598   -1.0393 C   0  0  0  1  0  0  0  0  0  0  0  0
   -4.6313   -5.3310   -1.9251 C   0  0  0  1  0  0  0  0  0  0  0  0
   -6.7477   -3.5936   -1.4662 C   0  0  0  1  0  0  0  0  0  0  0  0
   -6.8909   -4.6560   -2.3419 C   0  0  0  1  0  0  0  0  0  0  0  0
   -5.5502   -3.3896   -0.8143 C   0  0  0  1  0  0  0  0  0  0  0  0
   -2.9949   -2.8274    0.5105 C   0  0  0  1  0  0  0  0  0  0  0  0
   -3.1988   -4.0527   -0.3428 C   0  0  0  1  0  0  0  0  0  0  0  0
   -5.8355   -5.5216   -2.5695 C   0  0  0  1  0  0  0  0  0  0  0  0
   -3.4829   -6.2742   -2.1751 C   0  0  0  1  0  0  0  0  0  0  0  0
   -7.9036   -2.6572   -1.2252 C   0  0  0  1  0  0  0  0  0  0  0  0
   -8.2032   -4.8714   -3.0508 C   0  0  0  1  0  0  0  0  0  0  0  0
   -3.6584   -3.0385    1.8729 C   0  0  0  1  0  0  0  0  0  0  0  0
   -1.1779   -1.3246    0.8566 C   0  0  0  1  0  0  0  0  0  0  0  0
    0.2823   -1.0084    1.0534 C   0  0  0  1  0  0  0  0  0  0  0  0
    2.2844    0.9627    1.4635 C   0  0  0  1  0  0  0  0  0  0  0  0
    2.6259    2.4204    1.6358 C   0  0  0  1  0  0  0  0  0  0  0  0
    4.2238    4.1446    1.9769 C   0  0  0  1  0  0  0  0  0  0  0  0
    3.3183    5.2388    1.9727 C   0  0  0  1  0  0  0  0  0  0  0  0
    4.1104    6.3185    2.1618 C   0  0  0  1  0  0  0  0  0  0  0  0
    3.6681    7.7569    2.2420 C   0  0  0  1  0  0  0  0  0  0  0  0
   -5.4400   -2.5602   -0.1313 H   0  0  0  1  0  0  0  0  0  0  0  0
   -3.4421   -1.9636    0.0186 H   0  0  0  1  0  0  0  0  0  0  0  0
   -5.9551   -6.3485   -3.2540 H   0  0  0  1  0  0  0  0  0  0  0  0
   -3.4567   -7.0307   -1.3908 H   0  0  0  1  0  0  0  0  0  0  0  0
   -3.6146   -6.7585   -3.1427 H   0  0  0  1  0  0  0  0  0  0  0  0
   -2.5469   -5.7158   -2.1726 H   0  0  0  1  0  0  0  0  0  0  0  0
   -8.5029   -3.0264   -0.3929 H   0  0  0  1  0  0  0  0  0  0  0  0
   -7.5231   -1.6641   -0.9866 H   0  0  0  1  0  0  0  0  0  0  0  0
   -8.5210   -2.6039   -2.1219 H   0  0  0  1  0  0  0  0  0  0  0  0
   -8.1991   -4.3284   -3.9959 H   0  0  0  1  0  0  0  0  0  0  0  0
   -8.3417   -5.9353   -3.2436 H   0  0  0  1  0  0  0  0  0  0  0  0
   -9.0181   -4.5064   -2.4256 H   0  0  0  1  0  0  0  0  0  0  0  0
   -4.7257   -3.2114    1.7344 H   0  0  0  1  0  0  0  0  0  0  0  0
   -3.2113   -3.9024    2.3648 H   0  0  0  1  0  0  0  0  0  0  0  0
   -3.5110   -2.1523    2.4900 H   0  0  0  1  0  0  0  0  0  0  0  0
    0.8484   -1.3520    0.1876 H   0  0  0  1  0  0  0  0  0  0  0  0
    0.6458   -1.5127    1.9487 H   0  0  0  1  0  0  0  0  0  0  0  0
    2.5978    0.4090    2.3485 H   0  0  0  1  0  0  0  0  0  0  0  0
    2.8003    0.5698    0.5874 H   0  0  0  1  0  0  0  0  0  0  0  0
    4.6103    2.1269    1.8372 H   0  0  0  1  0  0  0  0  0  0  0  0
    2.2459    5.2143    1.8467 H   0  0  0  1  0  0  0  0  0  0  0  0
    4.5370    8.3960    2.3994 H   0  0  0  1  0  0  0  0  0  0  0  0
    3.1744    8.0376    1.3117 H   0  0  0  1  0  0  0  0  0  0  0  0
    2.9731    7.8775    3.0730 H   0  0  0  1  0  0  0  0  0  0  0  0
  1 22  1  0  0  0  0
  1 23  1  0  0  0  0
  2 14  1  0  0  0  0
  2 21  1  0  0  0  0
  3 15  2  0  0  0  0
  4 21  2  0  0  0  0
  5  8  4  0  0  0  0
  5 27  4  0  0  0  0
  6 24  2  0  0  0  0
  7 24  1  0  0  0  0
  7 25  1  0  0  0  0
  7 48  1  0  0  0  0
  8 25  4  0  0  0  0
  9 10  4  0  0  0  0
  9 13  4  0  0  0  0
  9 15  1  0  0  0  0
 10 16  4  0  0  0  0
 10 17  1  0  0  0  0
 11 12  4  0  0  0  0
 11 13  4  0  0  0  0
 11 18  1  0  0  0  0
 12 16  4  0  0  0  0
 12 19  1  0  0  0  0
 13 29  1  0  0  0  0
 14 15  1  0  0  0  0
 14 20  1  0  0  0  0
 14 30  1  0  0  0  0
 16 31  1  0  0  0  0
 17 32  1  0  0  0  0
 17 33  1  0  0  0  0
 17 34  1  0  0  0  0
 18 35  1  0  0  0  0
 18 36  1  0  0  0  0
 18 37  1  0  0  0  0
 19 38  1  0  0  0  0
 19 39  1  0  0  0  0
 19 40  1  0  0  0  0
 20 41  1  0  0  0  0
 20 42  1  0  0  0  0
 20 43  1  0  0  0  0
 21 22  1  0  0  0  0
 22 44  1  0  0  0  0
 22 45  1  0  0  0  0
 23 24  1  0  0  0  0
 23 46  1  0  0  0  0
 23 47  1  0  0  0  0
 25 26  4  0  0  0  0
 26 27  4  0  0  0  0
 26 49  1  0  0  0  0
 27 28  1  0  0  0  0
 28 50  1  0  0  0  0
 28 51  1  0  0  0  0
 28 52  1  0  0  0  0
M  END
> <Activity>
0.01

> <Mapped(file=2032.csv.activities,property=Cached(PUBCHEM_COMPOUND_CID))>
100

> <MatchIndices>
161 

> <PUBCHEM_ATOM_DEF_STEREO_COUNT>
0

> <PUBCHEM_ATOM_UDEF_STEREO_COUNT>
1

> <PUBCHEM_BONDANNOTATIONS>
10  16  8
11  12  8
11  13  8
12  16  8
14  20  3
25  26  8
26  27  8
5  27  8
5  8  8
8  25  8
9  10  8
9  13  8

> <PUBCHEM_BOND_DEF_STEREO_COUNT>
0

> <PUBCHEM_BOND_UDEF_STEREO_COUNT>
0

> <PUBCHEM_CACTVS_COMPLEXITY>
573

> <PUBCHEM_CACTVS_HBOND_ACCEPTOR>
7

> <PUBCHEM_CACTVS_HBOND_DONOR>
1

> <PUBCHEM_CACTVS_ROTATABLE_BOND>
9

> <PUBCHEM_CACTVS_SUBSKEYS>
AAADceB7OABAAAAAAAAAAAAAAAAAAWAAAAAwAAAAAAAAAAABwAAAHgQUAAAADBSl2gKzvJLQBAipAqPyegKCAAAlIhAhmCF2bNqIJDrAnZSGIYhm1QvoyceIyPCOwAACAAAQAACAAAQAACAAAAAAAAAAAA==

> <PUBCHEM_CACTVS_TAUTO_COUNT>
210

> <PUBCHEM_CACTVS_TPSA>
124

> <PUBCHEM_COMPONENT_COUNT>
1

> <PUBCHEM_COMPOUND_CANONICALIZED>
1

> <PUBCHEM_COMPOUND_CID>
24980797

> <PUBCHEM_COORDINATE_TYPE>
1
5
255

> <PUBCHEM_EXACT_MASS>
404.140593

> <PUBCHEM_HEAVY_ATOM_COUNT>
28

> <PUBCHEM_ISOTOPIC_ATOM_COUNT>
0

> <PUBCHEM_IUPAC_CAS_NAME>
2-[[2-[(5-methyl-3-isoxazolyl)amino]-2-oxoethyl]thio]acetic acid [1-oxo-1-(2,4,5-trimethylphenyl)propan-2-yl] ester

> <PUBCHEM_IUPAC_INCHI>
InChI=1S/C20H24N2O5S/c1-11-6-13(3)16(7-12(11)2)20(25)15(5)26-19(24)10-28-9-18(23)21-17-8-14(4)27-22-17/h6-8,15H,9-10H2,1-5H3,(H,21,22,23)

> <PUBCHEM_IUPAC_INCHIKEY>
MXWFUEFVOUTXFZ-UHFFFAOYSA-N

> <PUBCHEM_IUPAC_NAME>
[1-oxo-1-(2,4,5-trimethylphenyl)propan-2-yl] 2-[2-[(5-methyl-1,2-oxazol-3-yl)amino]-2-oxoethyl]sulfanylacetate

> <PUBCHEM_IUPAC_OPENEYE_NAME>
[1-methyl-2-oxo-2-(2,4,5-trimethylphenyl)ethyl] 2-[2-[(5-methylisoxazol-3-yl)amino]-2-oxo-ethyl]sulfanylacetate

> <PUBCHEM_IUPAC_SYSTEMATIC_NAME>
[1-oxidanylidene-1-(2,4,5-trimethylphenyl)propan-2-yl] 2-[2-[(5-methyl-1,2-oxazol-3-yl)amino]-2-oxidanylidene-ethyl]sulfanylethanoate

> <PUBCHEM_IUPAC_TRADITIONAL_NAME>
2-[[2-keto-2-[(5-methylisoxazol-3-yl)amino]ethyl]thio]acetic acid [2-keto-1-methyl-2-(2,4,5-trimethylphenyl)ethyl] ester

> <PUBCHEM_MOLECULAR_FORMULA>
C20H24N2O5S

> <PUBCHEM_MOLECULAR_WEIGHT>
404.47996

> <PUBCHEM_MONOISOTOPIC_WEIGHT>
404.140593

> <PUBCHEM_OPENEYE_CAN_SMILES>
CC1=CC(=C(C=C1C(=O)C(C)OC(=O)CSCC(=O)NC2=NOC(=C2)C)C)C

> <PUBCHEM_OPENEYE_ISO_SMILES>
CC1=CC(=C(C=C1C(=O)C(C)OC(=O)CSCC(=O)NC2=NOC(=C2)C)C)C

> <PUBCHEM_TOTAL_CHARGE>
0

> <PUBCHEM_XLOGP3_AA>
3.8

$$$$
Largest isolated from Written by BCL::WriteToMDL,2959070
JMcorina  04211410293D 1   1.00000     0.00000 
CORINA 3.49 0026  01.06.2011
 44 45  0  0  0  0  0  0  0  0999 V2000
   -0.0141    0.1814   -2.7017 Cl  0  0  0  1  0  0  0  0  0  0  0  0
   -0.0164    1.3560    0.0095 O   0  0  0  1  0  0  0  0  0  0  0  0
    0.0255   -0.0370    2.3850 O   0  0  0  1  0  0  0  0  0  0  0  0
   -1.3196   -4.7889   -0.0154 N   0  0  0  1  0  0  0  0  0  0  0  0
    0.0388   -2.7741   -0.0139 C   0  0  0  1  0  0  0  0  0  0  0  0
    0.0587   -4.2809   -0.0251 C   0  0  0  1  0  0  0  0  0  0  0  0
    0.0230   -0.7076    1.2019 C   0  0  0  1  0  0  0  0  0  0  0  0
    0.0413   -2.0934    1.1892 C   0  0  0  1  0  0  0  0  0  0  0  0
    0.0021   -0.0041    0.0020 C   0  0  0  1  0  0  0  0  0  0  0  0
    0.0237   -2.0756   -1.2070 C   0  0  0  1  0  0  0  0  0  0  0  0
    0.0053   -0.6924   -1.2017 C   0  0  0  1  0  0  0  0  0  0  0  0
   -1.3394   -6.2577   -0.0260 C   0  0  0  1  0  0  0  0  0  0  0  0
    1.2479    2.0220    0.0010 C   0  0  0  1  0  0  0  0  0  0  0  0
    1.0302    3.5132    0.0111 C   0  0  0  1  0  0  0  0  0  0  0  0
   -2.7885   -6.7484   -0.0154 C   0  0  0  1  0  0  0  0  0  0  0  0
    0.0475   -0.8246    3.5771 C   0  0  0  1  0  0  0  0  0  0  0  0
    0.9418    4.1907    1.2128 C   0  0  0  1  0  0  0  0  0  0  0  0
    0.9246    4.2043   -1.1814 C   0  0  0  1  0  0  0  0  0  0  0  0
    0.0470    0.0978    4.7978 C   0  0  0  1  0  0  0  0  0  0  0  0
    0.7421    5.5585    1.2220 C   0  0  0  1  0  0  0  0  0  0  0  0
    0.7249    5.5721   -1.1722 C   0  0  0  1  0  0  0  0  0  0  0  0
    0.6312    6.2489    0.0296 C   0  0  0  1  0  0  0  0  0  0  0  0
    0.5860   -4.6439    0.8571 H   0  0  0  1  0  0  0  0  0  0  0  0
    0.5686   -4.6308   -0.9227 H   0  0  0  1  0  0  0  0  0  0  0  0
    0.0572   -2.6416    2.1196 H   0  0  0  1  0  0  0  0  0  0  0  0
    0.0262   -2.6110   -2.1449 H   0  0  0  1  0  0  0  0  0  0  0  0
   -1.8332   -4.4261    0.7737 H   0  0  0  1  0  0  0  0  0  0  0  0
   -0.8392   -6.6214   -0.9236 H   0  0  0  1  0  0  0  0  0  0  0  0
   -0.8218   -6.6344    0.8563 H   0  0  0  1  0  0  0  0  0  0  0  0
    1.8173    1.7320    0.8840 H   0  0  0  1  0  0  0  0  0  0  0  0
    1.8003    1.7415   -0.8958 H   0  0  0  1  0  0  0  0  0  0  0  0
   -2.8032   -7.8383   -0.0232 H   0  0  0  1  0  0  0  0  0  0  0  0
   -3.2887   -6.3847    0.8822 H   0  0  0  1  0  0  0  0  0  0  0  0
   -3.3061   -6.3717   -0.8976 H   0  0  0  1  0  0  0  0  0  0  0  0
   -0.8338   -1.4654    3.6056 H   0  0  0  1  0  0  0  0  0  0  0  0
    0.9459   -1.4417    3.5884 H   0  0  0  1  0  0  0  0  0  0  0  0
    1.0284    3.6513    2.1444 H   0  0  0  1  0  0  0  0  0  0  0  0
    0.9984    3.6757   -2.1203 H   0  0  0  1  0  0  0  0  0  0  0  0
    0.0638   -0.5030    5.7072 H   0  0  0  1  0  0  0  0  0  0  0  0
    0.9283    0.7386    4.7694 H   0  0  0  1  0  0  0  0  0  0  0  0
   -0.8514    0.7149    4.7866 H   0  0  0  1  0  0  0  0  0  0  0  0
    0.6723    6.0877    2.1609 H   0  0  0  1  0  0  0  0  0  0  0  0
    0.6427    6.1122   -2.1038 H   0  0  0  1  0  0  0  0  0  0  0  0
    0.4748    7.3175    0.0368 H   0  0  0  1  0  0  0  0  0  0  0  0
  1 11  1  0  0  0  0
  2  9  1  0  0  0  0
  2 13  1  0  0  0  0
  3  7  1  0  0  0  0
  3 16  1  0  0  0  0
  4  6  1  0  0  0  0
  4 12  1  0  0  0  0
  4 27  1  0  0  0  0
  5  6  1  0  0  0  0
  5  8  4  0  0  0  0
  5 10  4  0  0  0  0
  6 23  1  0  0  0  0
  6 24  1  0  0  0  0
  7  8  4  0  0  0  0
  7  9  4  0  0  0  0
  8 25  1  0  0  0  0
  9 11  4  0  0  0  0
 10 11  4  0  0  0  0
 10 26  1  0  0  0  0
 12 15  1  0  0  0  0
 12 28  1  0  0  0  0
 12 29  1  0  0  0  0
 13 14  1  0  0  0  0
 13 30  1  0  0  0  0
 13 31  1  0  0  0  0
 14 17  4  0  0  0  0
 14 18  4  0  0  0  0
 15 32  1  0  0  0  0
 15 33  1  0  0  0  0
 15 34  1  0  0  0  0
 16 19  1  0  0  0  0
 16 35  1  0  0  0  0
 16 36  1  0  0  0  0
 17 20  4  0  0  0  0
 17 37  1  0  0  0  0
 18 21  4  0  0  0  0
 18 38  1  0  0  0  0
 19 39  1  0  0  0  0
 19 40  1  0  0  0  0
 19 41  1  0  0  0  0
 20 22  4  0  0  0  0
 20 42  1  0  0  0  0
 21 22  4  0  0  0  0
 21 43  1  0  0  0  0
 22 44  1  0  0  0  0
M  END
> <Activity>
0.01

> <Mapped(file=2032.csv.activities,property=Cached(PUBCHEM_COMPOUND_CID))>
100

> <MatchIndices>
63 

> <PUBCHEM_ATOM_DEF_STEREO_COUNT>
0

> <PUBCHEM_ATOM_UDEF_STEREO_COUNT>
0

> <PUBCHEM_BONDANNOTATIONS>
10  12  8
11  12  8
15  18  8
15  19  8
18  21  8
19  22  8
21  23  8
22  23  8
6  11  8
6  9  8
8  10  8
8  9  8

> <PUBCHEM_BOND_DEF_STEREO_COUNT>
0

> <PUBCHEM_BOND_UDEF_STEREO_COUNT>
0

> <PUBCHEM_CACTVS_COMPLEXITY>
297

> <PUBCHEM_CACTVS_HBOND_ACCEPTOR>
3

> <PUBCHEM_CACTVS_HBOND_DONOR>
2

> <PUBCHEM_CACTVS_ROTATABLE_BOND>
8

> <PUBCHEM_CACTVS_SUBSKEYS>
AAADceB6MAAGAAAAAAAAAAAAAAAAAAAAAAAwYAAAAAAAAAABQAAAHgIQAAAADAbhmCYyBoLABACAAiBCAACCCAAgJUAIiIAOj4gNJiOFsxuGOCrk0BGKqAew0DIOIAABIQAASABAAAJCAACQAAAAAAAAAA==

> <PUBCHEM_CACTVS_TAUTO_COUNT>
1

> <PUBCHEM_CACTVS_TPSA>
30.5

> <PUBCHEM_COMPONENT_COUNT>
2

> <PUBCHEM_COMPOUND_CANONICALIZED>
1

> <PUBCHEM_COMPOUND_CID>
2959070

> <PUBCHEM_COORDINATE_TYPE>
1
5
255

> <PUBCHEM_EXACT_MASS>
355.110584

> <PUBCHEM_HEAVY_ATOM_COUNT>
23

> <PUBCHEM_ISOTOPIC_ATOM_COUNT>
0

> <PUBCHEM_IUPAC_CAS_NAME>
N-[(3-chloro-5-ethoxy-4-phenylmethoxyphenyl)methyl]ethanamine hydrochloride

> <PUBCHEM_IUPAC_INCHI>
InChI=1S/C18H22ClNO2.ClH/c1-3-20-12-15-10-16(19)18(17(11-15)21-4-2)22-13-14-8-6-5-7-9-14;/h5-11,20H,3-4,12-13H2,1-2H3;1H

> <PUBCHEM_IUPAC_INCHIKEY>
IDCDOFYWAVUYJB-UHFFFAOYSA-N

> <PUBCHEM_IUPAC_NAME>
N-[(3-chloro-5-ethoxy-4-phenylmethoxyphenyl)methyl]ethanamine hydrochloride

> <PUBCHEM_IUPAC_OPENEYE_NAME>
N-[(4-benzyloxy-3-chloro-5-ethoxy-phenyl)methyl]ethanamine hydrochloride

> <PUBCHEM_IUPAC_SYSTEMATIC_NAME>
N-[(3-chloranyl-5-ethoxy-4-phenylmethoxy-phenyl)methyl]ethanamine hydrochloride

> <PUBCHEM_IUPAC_TRADITIONAL_NAME>
(4-benzoxy-3-chloro-5-ethoxy-benzyl)-ethyl-amine hydrochloride

> <PUBCHEM_MOLECULAR_FORMULA>
C18H23Cl2NO2

> <PUBCHEM_MOLECULAR_WEIGHT>
356.28672

> <PUBCHEM_MONOISOTOPIC_WEIGHT>
355.110584

> <PUBCHEM_OPENEYE_CAN_SMILES>
CCNCC1=CC(=C(C(=C1)Cl)OCC2=CC=CC=C2)OCC.Cl

> <PUBCHEM_OPENEYE_ISO_SMILES>
CCNCC1=CC(=C(C(=C1)Cl)OCC2=CC=CC=C2)OCC.Cl

> <PUBCHEM_TOTAL_CHARGE>
0

$$$$
Largest isolated from Written by BCL::WriteToMDL,24982334
JMcorina  04211410293D 1   1.00000     0.00000 
CORINA 3.49 0026  01.06.2011
 51 53  0  0  0  0  0  0  0  0999 V2000
   -0.2265    4.3734    0.0147 Cl  0  0  0  1  0  0  0  0  0  0  0  0
   -2.3441    0.2498    0.0258 O   0  0  0  1  0  0  0  0  0  0  0  0
   -0.0173    1.4248    0.0099 O   0  0  0  1  0  0  0  0  0  0  0  0
   -4.9131   -4.3628    0.8705 N   0  0  0  1  0  0  0  0  0  0  0  0
   -1.6400   -1.8540    0.0078 N   0  0  0  1  0  0  0  0  0  0  0  0
   -3.0144   -2.3611    0.0182 C   0  0  0  1  0  0  0  0  0  0  0  0
   -3.0476   -3.7620   -0.5990 C   0  0  0  1  0  0  0  0  0  0  0  0
   -3.5215   -2.4354    1.4610 C   0  0  0  1  0  0  0  0  0  0  0  0
   -4.4746   -4.3108   -0.5300 C   0  0  0  1  0  0  0  0  0  0  0  0
   -4.9347   -3.0226    1.4703 C   0  0  0  1  0  0  0  0  0  0  0  0
   -6.2252   -5.0131    0.9874 C   0  0  0  1  0  0  0  0  0  0  0  0
   -6.5309   -5.2696    2.4406 C   0  0  0  1  0  0  0  0  0  0  0  0
   -1.4117   -0.5257    0.0127 C   0  0  0  1  0  0  0  0  0  0  0  0
   -7.1960   -4.3142    3.1861 C   0  0  0  1  0  0  0  0  0  0  0  0
   -6.1514   -6.4627    3.0266 C   0  0  0  1  0  0  0  0  0  0  0  0
    0.0021   -0.0041    0.0020 C   0  0  0  1  0  0  0  0  0  0  0  0
   -7.4764   -4.5495    4.5191 C   0  0  0  1  0  0  0  0  0  0  0  0
   -6.4318   -6.6980    4.3596 C   0  0  0  1  0  0  0  0  0  0  0  0
   -7.0922   -5.7404    5.1065 C   0  0  0  1  0  0  0  0  0  0  0  0
    1.1853    2.0583    0.0018 C   0  0  0  1  0  0  0  0  0  0  0  0
    2.3594    1.3200   -0.0134 C   0  0  0  1  0  0  0  0  0  0  0  0
    1.2405    3.4453    0.0029 C   0  0  0  1  0  0  0  0  0  0  0  0
    3.5805    1.9660   -0.0221 C   0  0  0  1  0  0  0  0  0  0  0  0
    2.4652    4.0868   -0.0058 C   0  0  0  1  0  0  0  0  0  0  0  0
    3.6335    3.3478   -0.0156 C   0  0  0  1  0  0  0  0  0  0  0  0
    4.8563    1.1640   -0.0380 C   0  0  0  1  0  0  0  0  0  0  0  0
   -3.6534   -1.6932   -0.5596 H   0  0  0  1  0  0  0  0  0  0  0  0
   -2.8590   -3.0721    2.0473 H   0  0  0  1  0  0  0  0  0  0  0  0
   -3.5405   -1.4344    1.8921 H   0  0  0  1  0  0  0  0  0  0  0  0
   -2.7281   -3.7088   -1.6397 H   0  0  0  1  0  0  0  0  0  0  0  0
   -2.3776   -4.4196   -0.0452 H   0  0  0  1  0  0  0  0  0  0  0  0
   -5.5996   -2.3781    0.8954 H   0  0  0  1  0  0  0  0  0  0  0  0
   -5.2932   -3.0902    2.4975 H   0  0  0  1  0  0  0  0  0  0  0  0
   -4.4988   -5.3139   -0.9557 H   0  0  0  1  0  0  0  0  0  0  0  0
   -5.1416   -3.6602   -1.0955 H   0  0  0  1  0  0  0  0  0  0  0  0
   -6.9915   -4.3638    0.5640 H   0  0  0  1  0  0  0  0  0  0  0  0
   -6.2112   -5.9593    0.4465 H   0  0  0  1  0  0  0  0  0  0  0  0
   -0.8943   -2.4742   -0.0027 H   0  0  0  1  0  0  0  0  0  0  0  0
   -7.4961   -3.3837    2.7273 H   0  0  0  1  0  0  0  0  0  0  0  0
   -5.6360   -7.2111    2.4429 H   0  0  0  1  0  0  0  0  0  0  0  0
    0.5123   -0.3556   -0.8948 H   0  0  0  1  0  0  0  0  0  0  0  0
    0.5293   -0.3651    0.8851 H   0  0  0  1  0  0  0  0  0  0  0  0
   -7.9953   -3.8028    5.1018 H   0  0  0  1  0  0  0  0  0  0  0  0
   -6.1356   -7.6303    4.8173 H   0  0  0  1  0  0  0  0  0  0  0  0
   -7.3110   -5.9241    6.1480 H   0  0  0  1  0  0  0  0  0  0  0  0
    2.3191    0.2407   -0.0181 H   0  0  0  1  0  0  0  0  0  0  0  0
    2.5092    5.1659   -0.0049 H   0  0  0  1  0  0  0  0  0  0  0  0
    4.5893    3.8506   -0.0221 H   0  0  0  1  0  0  0  0  0  0  0  0
    5.1540    0.9754   -1.0695 H   0  0  0  1  0  0  0  0  0  0  0  0
    5.6424    1.7216    0.4709 H   0  0  0  1  0  0  0  0  0  0  0  0
    4.6951    0.2147    0.4729 H   0  0  0  1  0  0  0  0  0  0  0  0
  1 22  1  0  0  0  0
  2 13  2  0  0  0  0
  3 16  1  0  0  0  0
  3 20  1  0  0  0  0
  4  9  1  0  0  0  0
  4 10  1  0  0  0  0
  4 11  1  0  0  0  0
  5  6  1  0  0  0  0
  5 13  1  0  0  0  0
  5 38  1  0  0  0  0
  6  7  1  0  0  0  0
  6  8  1  0  0  0  0
  6 27  1  0  0  0  0
  7  9  1  0  0  0  0
  7 30  1  0  0  0  0
  7 31  1  0  0  0  0
  8 10  1  0  0  0  0
  8 28  1  0  0  0  0
  8 29  1  0  0  0  0
  9 34  1  0  0  0  0
  9 35  1  0  0  0  0
 10 32  1  0  0  0  0
 10 33  1  0  0  0  0
 11 12  1  0  0  0  0
 11 36  1  0  0  0  0
 11 37  1  0  0  0  0
 12 14  4  0  0  0  0
 12 15  4  0  0  0  0
 13 16  1  0  0  0  0
 14 17  4  0  0  0  0
 14 39  1  0  0  0  0
 15 18  4  0  0  0  0
 15 40  1  0  0  0  0
 16 41  1  0  0  0  0
 16 42  1  0  0  0  0
 17 19  4  0  0  0  0
 17 43  1  0  0  0  0
 18 19  4  0  0  0  0
 18 44  1  0  0  0  0
 19 45  1  0  0  0  0
 20 21  4  0  0  0  0
 20 22  4  0  0  0  0
 21 23  4  0  0  0  0
 21 46  1  0  0  0  0
 22 24  4  0  0  0  0
 23 25  4  0  0  0  0
 23 26  1  0  0  0  0
 24 25  4  0  0  0  0
 24 47  1  0  0  0  0
 25 48  1  0  0  0  0
 26 49  1  0  0  0  0
 26 50  1  0  0  0  0
 26 51  1  0  0  0  0
M  END
> <Activity>
0.01

> <Mapped(file=2032.csv.activities,property=Cached(PUBCHEM_COMPOUND_CID))>
100

> <MatchIndices>
45 

> <PUBCHEM_ATOM_DEF_STEREO_COUNT>
0

> <PUBCHEM_ATOM_UDEF_STEREO_COUNT>
0

> <PUBCHEM_BONDANNOTATIONS>
12  14  8
12  15  8
14  17  8
15  18  8
17  19  8
18  19  8
20  21  8
20  22  8
21  23  8
22  24  8
23  25  8
24  25  8

> <PUBCHEM_BOND_DEF_STEREO_COUNT>
0

> <PUBCHEM_BOND_UDEF_STEREO_COUNT>
0

> <PUBCHEM_CACTVS_COMPLEXITY>
434

> <PUBCHEM_CACTVS_HBOND_ACCEPTOR>
3

> <PUBCHEM_CACTVS_HBOND_DONOR>
1

> <PUBCHEM_CACTVS_ROTATABLE_BOND>
6

> <PUBCHEM_CACTVS_SUBSKEYS>
AAADceB7MAAEAAAAAAAAAAAAAAAAAAAAAAA8YIAAAAAAAAABQAAAHgIQAAAADC7hmCYyBoPABACIAiFSEAKCCAAgJUAIiIBOD4gOJiOF8x+HOCjk1hGYqAeQwBAOBAABAAAACAAIAAIAAAAQAAAAAAAAAA==

> <PUBCHEM_CACTVS_TAUTO_COUNT>
2

> <PUBCHEM_CACTVS_TPSA>
41.6

> <PUBCHEM_COMPONENT_COUNT>
1

> <PUBCHEM_COMPOUND_CANONICALIZED>
1

> <PUBCHEM_COMPOUND_CID>
24982334

> <PUBCHEM_COORDINATE_TYPE>
1
5
255

> <PUBCHEM_EXACT_MASS>
372.160456

> <PUBCHEM_HEAVY_ATOM_COUNT>
26

> <PUBCHEM_ISOTOPIC_ATOM_COUNT>
0

> <PUBCHEM_IUPAC_CAS_NAME>
2-(2-chloro-5-methylphenoxy)-N-[1-(phenylmethyl)-4-piperidinyl]acetamide

> <PUBCHEM_IUPAC_INCHI>
InChI=1S/C21H25ClN2O2/c1-16-7-8-19(22)20(13-16)26-15-21(25)23-18-9-11-24(12-10-18)14-17-5-3-2-4-6-17/h2-8,13,18H,9-12,14-15H2,1H3,(H,23,25)

> <PUBCHEM_IUPAC_INCHIKEY>
GVQXOJZYXJOGBQ-UHFFFAOYSA-N

> <PUBCHEM_IUPAC_NAME>
N-(1-benzylpiperidin-4-yl)-2-(2-chloro-5-methylphenoxy)acetamide

> <PUBCHEM_IUPAC_OPENEYE_NAME>
N-(1-benzyl-4-piperidyl)-2-(2-chloro-5-methyl-phenoxy)acetamide

> <PUBCHEM_IUPAC_SYSTEMATIC_NAME>
2-(2-chloranyl-5-methyl-phenoxy)-N-[1-(phenylmethyl)piperidin-4-yl]ethanamide

> <PUBCHEM_IUPAC_TRADITIONAL_NAME>
N-(1-benzyl-4-piperidyl)-2-(2-chloro-5-methyl-phenoxy)acetamide

> <PUBCHEM_MOLECULAR_FORMULA>
C21H25ClN2O2

> <PUBCHEM_MOLECULAR_WEIGHT>
372.8884

> <PUBCHEM_MONOISOTOPIC_WEIGHT>
372.160456

> <PUBCHEM_OPENEYE_CAN_SMILES>
CC1=CC(=C(C=C1)Cl)OCC(=O)NC2CCN(CC2)CC3=CC=CC=C3

> <PUBCHEM_OPENEYE_ISO_SMILES>
CC1=CC(=C(C=C1)Cl)OCC(=O)NC2CCN(CC2)CC3=CC=CC=C3

> <PUBCHEM_TOTAL_CHARGE>
0

> <PUBCHEM_XLOGP3_AA>
4.3

$$$$
Largest isolated from Written by BCL::WriteToMDL,23640915
JMcorina  04211410293D 1   1.00000     0.00000 
CORINA 3.49 0026  01.06.2011
 54 57  0  0  0  0  0  0  0  0999 V2000
   -0.0218    1.7538    0.0117 S   0  0  0  1  0  0  0  0  0  0  0  0
   -3.5086   -5.0415    0.0072 O   0  0  0  1  0  0  0  0  0  0  0  0
   -6.5963   -9.3682   -1.3726 N   0  0  0  1  0  0  0  0  0  0  0  0
   -1.1201   -0.8072    0.0080 N   0  0  0  1  0  0  0  0  0  0  0  0
    1.2163   -0.4363   -0.0119 N   0  0  0  1  0  0  0  0  0  0  0  0
   -7.9860   -9.8412   -1.4079 C   0  0  0  1  0  0  0  0  0  0  0  0
   -5.7005  -10.2994   -2.0703 C   0  0  0  1  0  0  0  0  0  0  0  0
   -8.4617   -9.9232   -2.8602 C   0  0  0  1  0  0  0  0  0  0  0  0
   -6.1079  -10.3950   -3.5423 C   0  0  0  1  0  0  0  0  0  0  0  0
   -7.5559  -10.8840   -3.6353 C   0  0  0  1  0  0  0  0  0  0  0  0
   -6.1511   -9.1451    0.0094 C   0  0  0  1  0  0  0  0  0  0  0  0
   -4.8223   -8.4342    0.0005 C   0  0  0  1  0  0  0  0  0  0  0  0
   -4.7783   -7.0537    0.0080 C   0  0  0  1  0  0  0  0  0  0  0  0
   -3.6481   -9.1645   -0.0098 C   0  0  0  1  0  0  0  0  0  0  0  0
   -3.5546   -6.3997    0.0003 C   0  0  0  1  0  0  0  0  0  0  0  0
   -2.4276   -8.5153   -0.0170 C   0  0  0  1  0  0  0  0  0  0  0  0
   -2.3782   -7.1345   -0.0149 C   0  0  0  1  0  0  0  0  0  0  0  0
   -2.2142   -4.4361   -0.0015 C   0  0  0  1  0  0  0  0  0  0  0  0
   -2.3632   -2.9134    0.0081 C   0  0  0  1  0  0  0  0  0  0  0  0
   -0.9774   -2.2653   -0.0011 C   0  0  0  1  0  0  0  0  0  0  0  0
    0.0021   -0.0041    0.0020 C   0  0  0  1  0  0  0  0  0  0  0  0
    1.7397    1.7918   -0.0049 C   0  0  0  1  0  0  0  0  0  0  0  0
    2.2098    0.4750   -0.0165 C   0  0  0  1  0  0  0  0  0  0  0  0
    2.6335    2.8591   -0.0077 C   0  0  0  1  0  0  0  0  0  0  0  0
    3.6040    0.2609   -0.0317 C   0  0  0  1  0  0  0  0  0  0  0  0
    3.9912    2.6260   -0.0224 C   0  0  0  1  0  0  0  0  0  0  0  0
    4.4708    1.3249   -0.0345 C   0  0  0  1  0  0  0  0  0  0  0  0
   -4.6746   -9.9378   -2.0001 H   0  0  0  1  0  0  0  0  0  0  0  0
   -5.7704  -11.2847   -1.6094 H   0  0  0  1  0  0  0  0  0  0  0  0
   -8.0453  -10.8287   -0.9501 H   0  0  0  1  0  0  0  0  0  0  0  0
   -8.6201   -9.1469   -0.8567 H   0  0  0  1  0  0  0  0  0  0  0  0
   -6.0250   -9.4127   -4.0074 H   0  0  0  1  0  0  0  0  0  0  0  0
   -5.4526  -11.0982   -4.0563 H   0  0  0  1  0  0  0  0  0  0  0  0
   -9.4880  -10.2892   -2.8868 H   0  0  0  1  0  0  0  0  0  0  0  0
   -8.4158   -8.9334   -3.3145 H   0  0  0  1  0  0  0  0  0  0  0  0
   -7.6315  -11.8827   -3.2052 H   0  0  0  1  0  0  0  0  0  0  0  0
   -7.8644  -10.9122   -4.6804 H   0  0  0  1  0  0  0  0  0  0  0  0
   -6.8862   -8.5347    0.5339 H   0  0  0  1  0  0  0  0  0  0  0  0
   -6.0466  -10.1041    0.5168 H   0  0  0  1  0  0  0  0  0  0  0  0
   -5.6956   -6.4837    0.0195 H   0  0  0  1  0  0  0  0  0  0  0  0
   -3.6846  -10.2439   -0.0114 H   0  0  0  1  0  0  0  0  0  0  0  0
   -1.5119   -9.0879   -0.0251 H   0  0  0  1  0  0  0  0  0  0  0  0
   -1.4245   -6.6278   -0.0210 H   0  0  0  1  0  0  0  0  0  0  0  0
   -1.6593   -4.7524    0.8818 H   0  0  0  1  0  0  0  0  0  0  0  0
   -1.6756   -4.7428   -0.8981 H   0  0  0  1  0  0  0  0  0  0  0  0
   -2.9182   -2.5971   -0.8751 H   0  0  0  1  0  0  0  0  0  0  0  0
   -2.9018   -2.6067    0.9047 H   0  0  0  1  0  0  0  0  0  0  0  0
   -0.4388   -2.5720   -0.8978 H   0  0  0  1  0  0  0  0  0  0  0  0
   -0.4224   -2.5816    0.8821 H   0  0  0  1  0  0  0  0  0  0  0  0
   -2.0033   -0.4064    0.0183 H   0  0  0  1  0  0  0  0  0  0  0  0
    2.2614    3.8729    0.0013 H   0  0  0  1  0  0  0  0  0  0  0  0
    3.9918   -0.7470   -0.0408 H   0  0  0  1  0  0  0  0  0  0  0  0
    4.6818    3.4563   -0.0252 H   0  0  0  1  0  0  0  0  0  0  0  0
    5.5360    1.1473   -0.0455 H   0  0  0  1  0  0  0  0  0  0  0  0
  1 21  4  0  0  0  0
  1 22  4  0  0  0  0
  2 15  1  0  0  0  0
  2 18  1  0  0  0  0
  3  6  1  0  0  0  0
  3  7  1  0  0  0  0
  3 11  1  0  0  0  0
  4 20  1  0  0  0  0
  4 21  1  0  0  0  0
  4 50  1  0  0  0  0
  5 21  4  0  0  0  0
  5 23  4  0  0  0  0
  6  8  1  0  0  0  0
  6 30  1  0  0  0  0
  6 31  1  0  0  0  0
  7  9  1  0  0  0  0
  7 28  1  0  0  0  0
  7 29  1  0  0  0  0
  8 10  1  0  0  0  0
  8 34  1  0  0  0  0
  8 35  1  0  0  0  0
  9 10  1  0  0  0  0
  9 32  1  0  0  0  0
  9 33  1  0  0  0  0
 10 36  1  0  0  0  0
 10 37  1  0  0  0  0
 11 12  1  0  0  0  0
 11 38  1  0  0  0  0
 11 39  1  0  0  0  0
 12 13  4  0  0  0  0
 12 14  4  0  0  0  0
 13 15  4  0  0  0  0
 13 40  1  0  0  0  0
 14 16  4  0  0  0  0
 14 41  1  0  0  0  0
 15 17  4  0  0  0  0
 16 17  4  0  0  0  0
 16 42  1  0  0  0  0
 17 43  1  0  0  0  0
 18 19  1  0  0  0  0
 18 44  1  0  0  0  0
 18 45  1  0  0  0  0
 19 20  1  0  0  0  0
 19 46  1  0  0  0  0
 19 47  1  0  0  0  0
 20 48  1  0  0  0  0
 20 49  1  0  0  0  0
 22 23  4  0  0  0  0
 22 24  4  0  0  0  0
 23 25  4  0  0  0  0
 24 26  4  0  0  0  0
 24 51  1  0  0  0  0
 25 27  4  0  0  0  0
 25 52  1  0  0  0  0
 26 27  4  0  0  0  0
 26 53  1  0  0  0  0
 27 54  1  0  0  0  0
M  END
> <Activity>
0.01

> <Mapped(file=2032.csv.activities,property=Cached(PUBCHEM_COMPOUND_CID))>
100

> <MatchIndices>
60 

> <PUBCHEM_ATOM_DEF_STEREO_COUNT>
0

> <PUBCHEM_ATOM_UDEF_STEREO_COUNT>
0

> <PUBCHEM_BONDANNOTATIONS>
1  25  8
1  26  8
16  17  8
16  18  8
17  19  8
18  20  8
19  21  8
20  21  8
26  27  8
26  28  8
27  29  8
28  30  8
29  31  8
30  31  8
9  25  8
9  27  8

> <PUBCHEM_BOND_DEF_STEREO_COUNT>
1

> <PUBCHEM_BOND_UDEF_STEREO_COUNT>
0

> <PUBCHEM_CACTVS_COMPLEXITY>
551

> <PUBCHEM_CACTVS_HBOND_ACCEPTOR>
7

> <PUBCHEM_CACTVS_HBOND_DONOR>
3

> <PUBCHEM_CACTVS_ROTATABLE_BOND>
10

> <PUBCHEM_CACTVS_SUBSKEYS>
AAADceB7OABAAAAAAAAAAAAAAAAAAWAAAAA8YIAAAAAAAFgB9AAAHgQQCAAADAzh3gYx37PIFgisAyTybACD+KlhKjlJmLw+bNiMJqLkuZuGOCju0BPI+aewwBAOAAABAAAAAQAAAAIAAAACAAAAAAAAAA==

> <PUBCHEM_CACTVS_TAUTO_COUNT>
2

> <PUBCHEM_CACTVS_TPSA>
140

> <PUBCHEM_COMPONENT_COUNT>
2

> <PUBCHEM_COMPOUND_CANONICALIZED>
1

> <PUBCHEM_COMPOUND_CID>
23640915

> <PUBCHEM_COORDINATE_TYPE>
1
5
255

> <PUBCHEM_EXACT_MASS>
497.198442

> <PUBCHEM_HEAVY_ATOM_COUNT>
35

> <PUBCHEM_ISOTOPIC_ATOM_COUNT>
0

> <PUBCHEM_IUPAC_CAS_NAME>
(Z)-2-butenedioic acid; N-[3-[3-(1-piperidinylmethyl)phenoxy]propyl]-1,3-benzothiazol-2-amine

> <PUBCHEM_IUPAC_INCHI>
InChI=1S/C22H27N3OS.C4H4O4/c1-4-13-25(14-5-1)17-18-8-6-9-19(16-18)26-15-7-12-23-22-24-20-10-2-3-11-21(20)27-22;5-3(6)1-2-4(7)8/h2-3,6,8-11,16H,1,4-5,7,12-15,17H2,(H,23,24);1-2H,(H,5,6)(H,7,8)/b;2-1-

> <PUBCHEM_IUPAC_INCHIKEY>
ZKHYAKSUYKITHP-BTJKTKAUSA-N

> <PUBCHEM_IUPAC_NAME>
(Z)-but-2-enedioic acid; N-[3-[3-(piperidin-1-ylmethyl)phenoxy]propyl]-1,3-benzothiazol-2-amine

> <PUBCHEM_IUPAC_OPENEYE_NAME>
maleic acid; N-[3-[3-(1-piperidylmethyl)phenoxy]propyl]-1,3-benzothiazol-2-amine

> <PUBCHEM_IUPAC_SYSTEMATIC_NAME>
(Z)-but-2-enedioic acid; N-[3-[3-(piperidin-1-ylmethyl)phenoxy]propyl]-1,3-benzothiazol-2-amine

> <PUBCHEM_IUPAC_TRADITIONAL_NAME>
1,3-benzothiazol-2-yl-[3-[3-(piperidinomethyl)phenoxy]propyl]amine; maleic acid

> <PUBCHEM_MOLECULAR_FORMULA>
C26H31N3O5S

> <PUBCHEM_MOLECULAR_WEIGHT>
497.60644

> <PUBCHEM_MONOISOTOPIC_WEIGHT>
497.198442

> <PUBCHEM_OPENEYE_CAN_SMILES>
C1CCN(CC1)CC2=CC(=CC=C2)OCCCNC3=NC4=CC=CC=C4S3.C(=CC(=O)O)C(=O)O

> <PUBCHEM_OPENEYE_ISO_SMILES>
C1CCN(CC1)CC2=CC(=CC=C2)OCCCNC3=NC4=CC=CC=C4S3.C(=C\C(=O)O)\C(=O)O

> <PUBCHEM_TOTAL_CHARGE>
0

$$$$
Largest isolated from Written by BCL::WriteToMDL,6485989
JMcorina  04211410293D 1   1.00000     0.00000 
CORINA 3.49 0026  01.06.2011
 49 52  0  0  0  0  0  0  0  0999 V2000
    3.3723    3.8731   -0.0084 F   0  0  0  1  0  0  0  0  0  0  0  0
   -0.0164    1.3557    0.0095 O   0  0  0  1  0  0  0  0  0  0  0  0
   -0.0213   -0.0118   -2.3820 O   0  0  0  1  0  0  0  0  0  0  0  0
   -4.7195    4.0038    7.9413 O   0  0  0  1  0  0  0  0  0  0  0  0
   -1.3374    0.4719    2.8262 N   0  0  0  1  0  0  0  0  0  0  0  0
   -4.2766    2.8384    6.0373 N   0  0  0  1  0  0  0  0  0  0  0  0
   -2.6183    3.3121    7.4056 N   0  0  0  1  0  0  0  0  0  0  0  0
    0.0257    0.0402    2.5070 C   0  0  0  1  0  0  0  0  0  0  0  0
    0.0229   -0.7046    1.1969 C   0  0  0  1  0  0  0  0  0  0  0  0
   -1.5874    1.1868    4.0024 C   0  0  0  1  0  0  0  0  0  0  0  0
   -3.1227    2.3032    5.4697 C   0  0  0  1  0  0  0  0  0  0  0  0
   -2.0699    2.6028    6.3364 C   0  0  0  1  0  0  0  0  0  0  0  0
    0.0021   -0.0041    0.0020 C   0  0  0  1  0  0  0  0  0  0  0  0
   -2.8784    1.5949    4.3033 C   0  0  0  1  0  0  0  0  0  0  0  0
   -0.5414    1.4851    4.8688 C   0  0  0  1  0  0  0  0  0  0  0  0
   -0.7816    2.1910    6.0305 C   0  0  0  1  0  0  0  0  0  0  0  0
    0.0470   -2.0872    1.1875 C   0  0  0  1  0  0  0  0  0  0  0  0
   -0.0004   -0.6950   -1.2063 C   0  0  0  1  0  0  0  0  0  0  0  0
   -3.9425    3.4365    7.1962 C   0  0  0  1  0  0  0  0  0  0  0  0
    1.2479    2.0217    0.0010 C   0  0  0  1  0  0  0  0  0  0  0  0
    0.0445   -2.7733   -0.0123 C   0  0  0  1  0  0  0  0  0  0  0  0
    0.0179   -2.0801   -1.2086 C   0  0  0  1  0  0  0  0  0  0  0  0
    1.0302    3.5129    0.0111 C   0  0  0  1  0  0  0  0  0  0  0  0
    2.1167    4.3716    0.0053 C   0  0  0  1  0  0  0  0  0  0  0  0
   -0.2535    4.0239    0.0203 C   0  0  0  1  0  0  0  0  0  0  0  0
    1.9151    5.7412    0.0141 C   0  0  0  1  0  0  0  0  0  0  0  0
   -0.4536    5.3920    0.0291 C   0  0  0  1  0  0  0  0  0  0  0  0
    0.6301    6.2500    0.0286 C   0  0  0  1  0  0  0  0  0  0  0  0
   -0.0226   -0.7866   -3.5827 C   0  0  0  1  0  0  0  0  0  0  0  0
    0.6739    0.9128    2.4275 H   0  0  0  1  0  0  0  0  0  0  0  0
    0.3935   -0.6150    3.2966 H   0  0  0  1  0  0  0  0  0  0  0  0
   -2.0666    0.2620    2.2219 H   0  0  0  1  0  0  0  0  0  0  0  0
   -3.6907    1.3619    3.6308 H   0  0  0  1  0  0  0  0  0  0  0  0
    0.4621    1.1637    4.6319 H   0  0  0  1  0  0  0  0  0  0  0  0
    0.0332    2.4228    6.7004 H   0  0  0  1  0  0  0  0  0  0  0  0
    0.0677   -2.6321    2.1197 H   0  0  0  1  0  0  0  0  0  0  0  0
   -5.1688    2.7918    5.6596 H   0  0  0  1  0  0  0  0  0  0  0  0
   -2.1293    3.6562    8.1693 H   0  0  0  1  0  0  0  0  0  0  0  0
    1.8173    1.7317    0.8840 H   0  0  0  1  0  0  0  0  0  0  0  0
    1.8003    1.7413   -0.8958 H   0  0  0  1  0  0  0  0  0  0  0  0
    0.0637   -3.8531   -0.0155 H   0  0  0  1  0  0  0  0  0  0  0  0
    0.0161   -2.6187   -2.1448 H   0  0  0  1  0  0  0  0  0  0  0  0
   -1.1010    3.3545    0.0203 H   0  0  0  1  0  0  0  0  0  0  0  0
    2.7617    6.4118    0.0100 H   0  0  0  1  0  0  0  0  0  0  0  0
   -1.4573    5.7905    0.0359 H   0  0  0  1  0  0  0  0  0  0  0  0
    0.4727    7.3185    0.0359 H   0  0  0  1  0  0  0  0  0  0  0  0
   -0.0402   -0.1203   -4.4451 H   0  0  0  1  0  0  0  0  0  0  0  0
    0.8755   -1.4032   -3.6182 H   0  0  0  1  0  0  0  0  0  0  0  0
   -0.9042   -1.4275   -3.6006 H   0  0  0  1  0  0  0  0  0  0  0  0
  1 24  1  0  0  0  0
  2 13  1  0  0  0  0
  2 20  1  0  0  0  0
  3 18  1  0  0  0  0
  3 29  1  0  0  0  0
  4 19  2  0  0  0  0
  5  8  1  0  0  0  0
  5 10  1  0  0  0  0
  5 32  1  0  0  0  0
  6 11  1  0  0  0  0
  6 19  1  0  0  0  0
  6 37  1  0  0  0  0
  7 12  1  0  0  0  0
  7 19  1  0  0  0  0
  7 38  1  0  0  0  0
  8  9  1  0  0  0  0
  8 30  1  0  0  0  0
  8 31  1  0  0  0  0
  9 13  4  0  0  0  0
  9 17  4  0  0  0  0
 10 14  4  0  0  0  0
 10 15  4  0  0  0  0
 11 12  4  0  0  0  0
 11 14  4  0  0  0  0
 12 16  4  0  0  0  0
 13 18  4  0  0  0  0
 14 33  1  0  0  0  0
 15 16  4  0  0  0  0
 15 34  1  0  0  0  0
 16 35  1  0  0  0  0
 17 21  4  0  0  0  0
 17 36  1  0  0  0  0
 18 22  4  0  0  0  0
 20 23  1  0  0  0  0
 20 39  1  0  0  0  0
 20 40  1  0  0  0  0
 21 22  4  0  0  0  0
 21 41  1  0  0  0  0
 22 42  1  0  0  0  0
 23 24  4  0  0  0  0
 23 25  4  0  0  0  0
 24 26  4  0  0  0  0
 25 27  4  0  0  0  0
 25 43  1  0  0  0  0
 26 28  4  0  0  0  0
 26 44  1  0  0  0  0
 27 28  4  0  0  0  0
 27 45  1  0  0  0  0
 28 46  1  0  0  0  0
 29 47  1  0  0  0  0
 29 48  1  0  0  0  0
 29 49  1  0  0  0  0
M  END
> <Activity>
0.01

> <Mapped(file=2032.csv.activities,property=Cached(PUBCHEM_COMPOUND_CID))>
100

> <MatchIndices>
219 

> <PUBCHEM_ATOM_DEF_STEREO_COUNT>
0

> <PUBCHEM_ATOM_UDEF_STEREO_COUNT>
0

> <PUBCHEM_BONDANNOTATIONS>
10  14  8
10  15  8
11  12  8
11  14  8
12  16  8
13  18  8
15  16  8
17  21  8
18  22  8
21  22  8
23  24  8
23  25  8
24  26  8
25  27  8
26  28  8
27  28  8
6  11  8
6  19  8
7  12  8
7  19  8
9  13  8
9  17  8

> <PUBCHEM_BOND_DEF_STEREO_COUNT>
0

> <PUBCHEM_BOND_UDEF_STEREO_COUNT>
0

> <PUBCHEM_CACTVS_COMPLEXITY>
551

> <PUBCHEM_CACTVS_HBOND_ACCEPTOR>
5

> <PUBCHEM_CACTVS_HBOND_DONOR>
3

> <PUBCHEM_CACTVS_ROTATABLE_BOND>
7

> <PUBCHEM_CACTVS_SUBSKEYS>
AAADceB7MQAAAAAAAAAAAAAAAAAAAWAAAAAwYMAAAAAAAFgBUAAAHwAQAAAADAzhmA4zxoLABACIAiRCUACCCAAhIgAIiIAO/IiNZiLE8duWOCru1BPK6CewwDAOAACBAAQIQCAAAQIACBCAQAAAAAAAAA==

> <PUBCHEM_CACTVS_TAUTO_COUNT>
3

> <PUBCHEM_CACTVS_TPSA>
71.6

> <PUBCHEM_COMPONENT_COUNT>
1

> <PUBCHEM_COMPOUND_CANONICALIZED>
1

> <PUBCHEM_COMPOUND_CID>
6485989

> <PUBCHEM_COORDINATE_TYPE>
1
5
255

> <PUBCHEM_EXACT_MASS>
393.14887

> <PUBCHEM_HEAVY_ATOM_COUNT>
29

> <PUBCHEM_ISOTOPIC_ATOM_COUNT>
0

> <PUBCHEM_IUPAC_CAS_NAME>
5-[[2-[(2-fluorophenyl)methoxy]-3-methoxyphenyl]methylamino]-1,3-dihydrobenzimidazol-2-one

> <PUBCHEM_IUPAC_INCHI>
InChI=1S/C22H20FN3O3/c1-28-20-8-4-6-14(21(20)29-13-15-5-2-3-7-17(15)23)12-24-16-9-10-18-19(11-16)26-22(27)25-18/h2-11,24H,12-13H2,1H3,(H2,25,26,27)

> <PUBCHEM_IUPAC_INCHIKEY>
LBUKEOHIRXWIGC-UHFFFAOYSA-N

> <PUBCHEM_IUPAC_NAME>
5-[[2-[(2-fluorophenyl)methoxy]-3-methoxyphenyl]methylamino]-1,3-dihydrobenzimidazol-2-one

> <PUBCHEM_IUPAC_OPENEYE_NAME>
5-[[2-[(2-fluorophenyl)methoxy]-3-methoxy-phenyl]methylamino]-1,3-dihydrobenzimidazol-2-one

> <PUBCHEM_IUPAC_SYSTEMATIC_NAME>
5-[[2-[(2-fluorophenyl)methoxy]-3-methoxy-phenyl]methylamino]-1,3-dihydrobenzimidazol-2-one

> <PUBCHEM_IUPAC_TRADITIONAL_NAME>
5-[[2-(2-fluorobenzyl)oxy-3-methoxy-benzyl]amino]-1,3-dihydrobenzimidazol-2-one

> <PUBCHEM_MOLECULAR_FORMULA>
C22H20FN3O3

> <PUBCHEM_MOLECULAR_WEIGHT>
393.410903

> <PUBCHEM_MONOISOTOPIC_WEIGHT>
393.14887

> <PUBCHEM_OPENEYE_CAN_SMILES>
COC1=CC=CC(=C1OCC2=CC=CC=C2F)CNC3=CC4=C(C=C3)NC(=O)N4

> <PUBCHEM_OPENEYE_ISO_SMILES>
COC1=CC=CC(=C1OCC2=CC=CC=C2F)CNC3=CC4=C(C=C3)NC(=O)N4

> <PUBCHEM_TOTAL_CHARGE>
0

> <PUBCHEM_XLOGP3_AA>
3.6

$$$$
Largest isolated from Written by BCL::WriteToMDL,2972188
JMcorina  04211410293D 1   1.00000     0.00000 
CORINA 3.49 0026  01.06.2011
 38 40  0  0  0  0  0  0  0  0999 V2000
    8.9308   18.0397    8.1291 N   0  0  0  1  0  0  0  0  0  0  0  0
    9.9135   12.5882    7.5472 N   0  0  0  1  0  0  0  0  0  0  0  0
    9.1568   10.4616    6.9908 N   0  0  0  1  0  0  0  0  0  0  0  0
    7.8223   12.3143    6.5468 N   0  0  0  1  0  0  0  0  0  0  0  0
    5.7016   12.1614    5.5438 N   0  0  0  1  0  0  0  0  0  0  0  0
    9.1777   16.6699    7.9826 C   0  0  0  1  0  0  0  0  0  0  0  0
    9.6664   13.9593    7.6937 C   0  0  0  1  0  0  0  0  0  0  0  0
    7.0321   10.1714    5.9727 C   0  0  0  1  0  0  0  0  0  0  0  0
    8.2368    9.6283    6.4821 C   0  0  0  1  0  0  0  0  0  0  0  0
   10.4305   16.2297    7.5760 C   0  0  0  1  0  0  0  0  0  0  0  0
    8.1715   15.7506    8.2494 C   0  0  0  1  0  0  0  0  0  0  0  0
   10.6741   14.8782    7.4320 C   0  0  0  1  0  0  0  0  0  0  0  0
    8.4153   14.3992    8.1054 C   0  0  0  1  0  0  0  0  0  0  0  0
    8.9392   11.7626    7.0140 C   0  0  0  1  0  0  0  0  0  0  0  0
    6.8536   11.5770    6.0247 C   0  0  0  1  0  0  0  0  0  0  0  0
    6.0604    9.3199    5.4377 C   0  0  0  1  0  0  0  0  0  0  0  0
    8.4352    8.2418    6.4413 C   0  0  0  1  0  0  0  0  0  0  0  0
   10.0218   19.0027    7.9599 C   0  0  0  1  0  0  0  0  0  0  0  0
    7.5803   18.5108    8.4456 C   0  0  0  1  0  0  0  0  0  0  0  0
    6.2855    7.9743    5.4127 C   0  0  0  1  0  0  0  0  0  0  0  0
    7.4681    7.4384    5.9131 C   0  0  0  1  0  0  0  0  0  0  0  0
   11.2141   16.9444    7.3721 H   0  0  0  1  0  0  0  0  0  0  0  0
    7.1986   16.0927    8.5699 H   0  0  0  1  0  0  0  0  0  0  0  0
   11.6471   14.5361    7.1119 H   0  0  0  1  0  0  0  0  0  0  0  0
    7.6316   13.6845    8.3089 H   0  0  0  1  0  0  0  0  0  0  0  0
   10.7675   12.2175    7.8194 H   0  0  0  1  0  0  0  0  0  0  0  0
    5.1383    9.7245    5.0471 H   0  0  0  1  0  0  0  0  0  0  0  0
    9.3485    7.8121    6.8254 H   0  0  0  1  0  0  0  0  0  0  0  0
   10.9214   18.4795    7.6359 H   0  0  0  1  0  0  0  0  0  0  0  0
    7.4563   18.5584    9.5274 H   0  0  0  1  0  0  0  0  0  0  0  0
    7.4323   19.5029    8.0189 H   0  0  0  1  0  0  0  0  0  0  0  0
    6.8474   17.8218    8.0258 H   0  0  0  1  0  0  0  0  0  0  0  0
    9.7410   19.7416    7.2094 H   0  0  0  1  0  0  0  0  0  0  0  0
   10.2146   19.5036    8.9086 H   0  0  0  1  0  0  0  0  0  0  0  0
    5.5352    7.3162    5.0000 H   0  0  0  1  0  0  0  0  0  0  0  0
    7.6226    6.3700    5.8823 H   0  0  0  1  0  0  0  0  0  0  0  0
    5.5925   13.1243    5.5851 H   0  0  0  1  0  0  0  0  0  0  0  0
    5.0000   11.6097    5.1639 H   0  0  0  1  0  0  0  0  0  0  0  0
  1  6  1  0  0  0  0
  1 18  1  0  0  0  0
  1 19  1  0  0  0  0
  2  7  1  0  0  0  0
  2 14  1  0  0  0  0
  2 26  1  0  0  0  0
  3  9  4  0  0  0  0
  3 14  4  0  0  0  0
  4 14  4  0  0  0  0
  4 15  4  0  0  0  0
  5 15  1  0  0  0  0
  5 37  1  0  0  0  0
  5 38  1  0  0  0  0
  6 10  4  0  0  0  0
  6 11  4  0  0  0  0
  7 12  4  0  0  0  0
  7 13  4  0  0  0  0
  8  9  4  0  0  0  0
  8 15  4  0  0  0  0
  8 16  4  0  0  0  0
  9 17  4  0  0  0  0
 10 12  4  0  0  0  0
 10 22  1  0  0  0  0
 11 13  4  0  0  0  0
 11 23  1  0  0  0  0
 12 24  1  0  0  0  0
 13 25  1  0  0  0  0
 16 20  4  0  0  0  0
 16 27  1  0  0  0  0
 17 21  4  0  0  0  0
 17 28  1  0  0  0  0
 18 29  1  0  0  0  0
 18 33  1  0  0  0  0
 18 34  1  0  0  0  0
 19 30  1  0  0  0  0
 19 31  1  0  0  0  0
 19 32  1  0  0  0  0
 20 21  4  0  0  0  0
 20 35  1  0  0  0  0
 21 36  1  0  0  0  0
M  END
> <Activity>
0.01

> <Mapped(file=2032.csv.activities,property=Cached(PUBCHEM_COMPOUND_CID))>
100

> <MatchIndices>
22 

> <PUBCHEM_ATOM_DEF_STEREO_COUNT>
0

> <PUBCHEM_ATOM_UDEF_STEREO_COUNT>
0

> <PUBCHEM_BONDANNOTATIONS>
10  18  8
11  13  8
12  14  8
17  21  8
18  22  8
21  22  8
4  10  8
4  15  8
5  15  8
5  16  8
7  11  8
7  12  8
8  13  8
8  14  8
9  10  8
9  16  8
9  17  8

> <PUBCHEM_BOND_DEF_STEREO_COUNT>
0

> <PUBCHEM_BOND_UDEF_STEREO_COUNT>
0

> <PUBCHEM_CACTVS_COMPLEXITY>
327

> <PUBCHEM_CACTVS_HBOND_ACCEPTOR>
1

> <PUBCHEM_CACTVS_HBOND_DONOR>
3

> <PUBCHEM_CACTVS_ROTATABLE_BOND>
3

> <PUBCHEM_CACTVS_SUBSKEYS>
AAADceB7gAAEAAAAAAAAAAAAAAAAAAAAAAA8YIAAAAAAAACx9AAAHAAQAAAADAiBHgQz8PfIEACgAyZiZACCgCkhAqAJmCA4ZJiIKKLA2dGEJAhokAJIyCcQgAAOAACAAAACAAAAAQAAAAQAAAAAAAAAAA==

> <PUBCHEM_CACTVS_TAUTO_COUNT>
12

> <PUBCHEM_CACTVS_TPSA>
67.1

> <PUBCHEM_COMPONENT_COUNT>
2

> <PUBCHEM_COMPOUND_CANONICALIZED>
1

> <PUBCHEM_COMPOUND_CID>
2972188

> <PUBCHEM_COORDINATE_TYPE>
1
5
255

> <PUBCHEM_EXACT_MASS>
315.125073

> <PUBCHEM_HEAVY_ATOM_COUNT>
22

> <PUBCHEM_ISOTOPIC_ATOM_COUNT>
0

> <PUBCHEM_IUPAC_CAS_NAME>
N2-[4-(dimethylamino)phenyl]quinazoline-2,4-diamine hydrochloride

> <PUBCHEM_IUPAC_INCHI>
InChI=1S/C16H17N5.ClH/c1-21(2)12-9-7-11(8-10-12)18-16-19-14-6-4-3-5-13(14)15(17)20-16;/h3-10H,1-2H3,(H3,17,18,19,20);1H

> <PUBCHEM_IUPAC_INCHIKEY>
QOCBEHHYUJMWGW-UHFFFAOYSA-N

> <PUBCHEM_IUPAC_NAME>
2-N-[4-(dimethylamino)phenyl]quinazoline-2,4-diamine hydrochloride

> <PUBCHEM_IUPAC_OPENEYE_NAME>
N2-[4-(dimethylamino)phenyl]quinazoline-2,4-diamine hydrochloride

> <PUBCHEM_IUPAC_SYSTEMATIC_NAME>
N2-[4-(dimethylamino)phenyl]quinazoline-2,4-diamine hydrochloride

> <PUBCHEM_IUPAC_TRADITIONAL_NAME>
[4-[(4-aminoquinazolin-2-yl)amino]phenyl]-dimethyl-amine hydrochloride

> <PUBCHEM_MOLECULAR_FORMULA>
C16H18ClN5

> <PUBCHEM_MOLECULAR_WEIGHT>
315.80062

> <PUBCHEM_MONOISOTOPIC_WEIGHT>
315.125073

> <PUBCHEM_OPENEYE_CAN_SMILES>
CN(C)C1=CC=C(C=C1)NC2=NC3=CC=CC=C3C(=N2)N.Cl

> <PUBCHEM_OPENEYE_ISO_SMILES>
CN(C)C1=CC=C(C=C1)NC2=NC3=CC=CC=C3C(=N2)N.Cl

> <PUBCHEM_TOTAL_CHARGE>
0

$$$$
Largest isolated from Written by BCL::WriteToMDL,2983087
JMcorina  04211410293D 1   1.00000     0.00000 
CORINA 3.49 0026  01.06.2011
 47 49  0  0  0  0  0  0  0  0999 V2000
   10.1046   10.4839    7.1112 O   0  0  0  1  0  0  0  0  0  0  0  0
    9.5459   13.2190    8.7531 N   0  0  0  1  0  0  0  0  0  0  0  0
   10.3257    9.0723    7.1382 C   0  0  0  1  0  0  0  0  0  0  0  0
    9.2354    8.3840    7.9780 C   0  0  0  1  0  0  0  0  0  0  0  0
   10.2156    8.4928    5.7128 C   0  0  0  1  0  0  0  0  0  0  0  0
    9.5299    7.1185    5.9134 C   0  0  0  1  0  0  0  0  0  0  0  0
    8.5008    7.4102    7.0336 C   0  0  0  1  0  0  0  0  0  0  0  0
   11.1840   11.2729    6.8678 C   0  0  0  1  0  0  0  0  0  0  0  0
   11.0671   12.6533    6.9445 C   0  0  0  1  0  0  0  0  0  0  0  0
    9.7429   13.2796    7.2986 C   0  0  0  1  0  0  0  0  0  0  0  0
    8.2622   13.8218    9.1360 C   0  0  0  1  0  0  0  0  0  0  0  0
   12.4057   10.6993    6.5477 C   0  0  0  1  0  0  0  0  0  0  0  0
   12.1656   13.4531    6.6966 C   0  0  0  1  0  0  0  0  0  0  0  0
    7.8020   13.2342   10.4452 C   0  0  0  1  0  0  0  0  0  0  0  0
   13.5016   11.5037    6.3005 C   0  0  0  1  0  0  0  0  0  0  0  0
    8.4342   15.3344    9.2883 C   0  0  0  1  0  0  0  0  0  0  0  0
   13.3812   12.8790    6.3721 C   0  0  0  1  0  0  0  0  0  0  0  0
    6.4660   12.9355   10.6372 C   0  0  0  1  0  0  0  0  0  0  0  0
    8.7167   12.9886   11.4521 C   0  0  0  1  0  0  0  0  0  0  0  0
    6.0439   12.3966   11.8381 C   0  0  0  1  0  0  0  0  0  0  0  0
    8.2946   12.4496   12.6530 C   0  0  0  1  0  0  0  0  0  0  0  0
    6.9578   12.1558   12.8469 C   0  0  0  1  0  0  0  0  0  0  0  0
   11.3096    8.8567    7.5547 H   0  0  0  1  0  0  0  0  0  0  0  0
    9.6903    7.8336    8.8015 H   0  0  0  1  0  0  0  0  0  0  0  0
    8.5376    9.1266    8.3649 H   0  0  0  1  0  0  0  0  0  0  0  0
    9.6007    9.1379    5.0852 H   0  0  0  1  0  0  0  0  0  0  0  0
   11.2057    8.3649    5.2754 H   0  0  0  1  0  0  0  0  0  0  0  0
    9.0270    6.8007    5.0000 H   0  0  0  1  0  0  0  0  0  0  0  0
    8.2396    6.4923    7.5601 H   0  0  0  1  0  0  0  0  0  0  0  0
    7.6090    7.8805    6.6193 H   0  0  0  1  0  0  0  0  0  0  0  0
   10.2527    6.3700    6.2381 H   0  0  0  1  0  0  0  0  0  0  0  0
    8.9396   12.7370    6.8003 H   0  0  0  1  0  0  0  0  0  0  0  0
    9.7346   14.3200    6.9738 H   0  0  0  1  0  0  0  0  0  0  0  0
    7.5199   13.6164    8.3647 H   0  0  0  1  0  0  0  0  0  0  0  0
    9.6138   12.2696    9.0880 H   0  0  0  1  0  0  0  0  0  0  0  0
   12.5004    9.6249    6.4920 H   0  0  0  1  0  0  0  0  0  0  0  0
   12.0751   14.5276    6.7559 H   0  0  0  1  0  0  0  0  0  0  0  0
    8.7671   15.7594    8.3414 H   0  0  0  1  0  0  0  0  0  0  0  0
    7.4817   15.7816    9.5725 H   0  0  0  1  0  0  0  0  0  0  0  0
    9.1765   15.5398   10.0597 H   0  0  0  1  0  0  0  0  0  0  0  0
   14.4531   11.0576    6.0516 H   0  0  0  1  0  0  0  0  0  0  0  0
   14.2389   13.5061    6.1786 H   0  0  0  1  0  0  0  0  0  0  0  0
    5.7520   13.1236    9.8490 H   0  0  0  1  0  0  0  0  0  0  0  0
    9.7612   13.2175   11.3004 H   0  0  0  1  0  0  0  0  0  0  0  0
    5.0000   12.1639   11.9883 H   0  0  0  1  0  0  0  0  0  0  0  0
    9.0093   12.2574   13.4396 H   0  0  0  1  0  0  0  0  0  0  0  0
    6.6280   11.7351   13.7853 H   0  0  0  1  0  0  0  0  0  0  0  0
  1  3  1  0  0  0  0
  1  8  1  0  0  0  0
  2 10  1  0  0  0  0
  2 11  1  0  0  0  0
  2 35  1  0  0  0  0
  3  4  1  0  0  0  0
  3  5  1  0  0  0  0
  3 23  1  0  0  0  0
  4  7  1  0  0  0  0
  4 24  1  0  0  0  0
  4 25  1  0  0  0  0
  5  6  1  0  0  0  0
  5 26  1  0  0  0  0
  5 27  1  0  0  0  0
  6  7  1  0  0  0  0
  6 28  1  0  0  0  0
  6 31  1  0  0  0  0
  7 29  1  0  0  0  0
  7 30  1  0  0  0  0
  8  9  4  0  0  0  0
  8 12  4  0  0  0  0
  9 10  1  0  0  0  0
  9 13  4  0  0  0  0
 10 32  1  0  0  0  0
 10 33  1  0  0  0  0
 11 14  1  0  0  0  0
 11 16  1  0  0  0  0
 11 34  1  0  0  0  0
 12 15  4  0  0  0  0
 12 36  1  0  0  0  0
 13 17  4  0  0  0  0
 13 37  1  0  0  0  0
 14 18  4  0  0  0  0
 14 19  4  0  0  0  0
 15 17  4  0  0  0  0
 15 41  1  0  0  0  0
 16 38  1  0  0  0  0
 16 39  1  0  0  0  0
 16 40  1  0  0  0  0
 17 42  1  0  0  0  0
 18 20  4  0  0  0  0
 18 43  1  0  0  0  0
 19 21  4  0  0  0  0
 19 44  1  0  0  0  0
 20 22  4  0  0  0  0
 20 45  1  0  0  0  0
 21 22  4  0  0  0  0
 21 46  1  0  0  0  0
 22 47  1  0  0  0  0
M  END
> <Activity>
0.01

> <Mapped(file=2032.csv.activities,property=Cached(PUBCHEM_COMPOUND_CID))>
100

> <MatchIndices>
140 

> <PUBCHEM_ATOM_DEF_STEREO_COUNT>
0

> <PUBCHEM_ATOM_UDEF_STEREO_COUNT>
1

> <PUBCHEM_BONDANNOTATIONS>
10  14  8
12  17  3
13  16  8
14  18  8
15  19  8
15  20  8
16  18  8
19  21  8
20  22  8
21  23  8
22  23  8
9  10  8
9  13  8

> <PUBCHEM_BOND_DEF_STEREO_COUNT>
0

> <PUBCHEM_BOND_UDEF_STEREO_COUNT>
0

> <PUBCHEM_CACTVS_COMPLEXITY>
307

> <PUBCHEM_CACTVS_HBOND_ACCEPTOR>
2

> <PUBCHEM_CACTVS_HBOND_DONOR>
2

> <PUBCHEM_CACTVS_ROTATABLE_BOND>
6

> <PUBCHEM_CACTVS_SUBSKEYS>
AAADceB6IAAEAAAAAAAAAAAAAAAAAYAAAAAwYAAAAAAAAAABQAAAHgAQAAAADDzhmAYyBoLABACAAiBCAACCCAAgIAAIiIAODIgMJiKEsRuGOCjm0BGIqAeQwKAOAAAAAAAIAAAAAAAAABAAAAAAAAAAAA==

> <PUBCHEM_CACTVS_TAUTO_COUNT>
1

> <PUBCHEM_CACTVS_TPSA>
21.3

> <PUBCHEM_COMPONENT_COUNT>
2

> <PUBCHEM_COMPOUND_CANONICALIZED>
1

> <PUBCHEM_COMPOUND_CID>
2983087

> <PUBCHEM_COORDINATE_TYPE>
1
5
255

> <PUBCHEM_EXACT_MASS>
331.170292

> <PUBCHEM_HEAVY_ATOM_COUNT>
23

> <PUBCHEM_ISOTOPIC_ATOM_COUNT>
0

> <PUBCHEM_IUPAC_CAS_NAME>
N-[(2-cyclopentyloxyphenyl)methyl]-1-phenylethanamine hydrochloride

> <PUBCHEM_IUPAC_INCHI>
InChI=1S/C20H25NO.ClH/c1-16(17-9-3-2-4-10-17)21-15-18-11-5-8-14-20(18)22-19-12-6-7-13-19;/h2-5,8-11,14,16,19,21H,6-7,12-13,15H2,1H3;1H

> <PUBCHEM_IUPAC_INCHIKEY>
JILMIWQSQIKGCV-UHFFFAOYSA-N

> <PUBCHEM_IUPAC_NAME>
N-[(2-cyclopentyloxyphenyl)methyl]-1-phenylethanamine hydrochloride

> <PUBCHEM_IUPAC_OPENEYE_NAME>
N-[[2-(cyclopentoxy)phenyl]methyl]-1-phenyl-ethanamine hydrochloride

> <PUBCHEM_IUPAC_SYSTEMATIC_NAME>
N-[(2-cyclopentyloxyphenyl)methyl]-1-phenyl-ethanamine hydrochloride

> <PUBCHEM_IUPAC_TRADITIONAL_NAME>
[2-(cyclopentoxy)benzyl]-(1-phenylethyl)amine hydrochloride

> <PUBCHEM_MOLECULAR_FORMULA>
C20H26ClNO

> <PUBCHEM_MOLECULAR_WEIGHT>
331.87954

> <PUBCHEM_MONOISOTOPIC_WEIGHT>
331.170292

> <PUBCHEM_OPENEYE_CAN_SMILES>
CC(C1=CC=CC=C1)NCC2=CC=CC=C2OC3CCCC3.Cl

> <PUBCHEM_OPENEYE_ISO_SMILES>
CC(C1=CC=CC=C1)NCC2=CC=CC=C2OC3CCCC3.Cl

> <PUBCHEM_TOTAL_CHARGE>
0

$$$$
Largest isolated from Written by BCL::WriteToMDL,661024
JMcorina  04211410293D 1   1.00000     0.00000 
CORINA 3.49 0026  01.06.2011
 41 42  0  0  0  0  0  0  0  0999 V2000
   -2.1907   -2.7626    3.9031 Cl  0  0  0  1  0  0  0  0  0  0  0  0
   -5.0922   -2.2724    3.2852 Cl  0  0  0  1  0  0  0  0  0  0  0  0
   -0.0161    1.3381    0.0094 O   0  0  0  1  0  0  0  0  0  0  0  0
    1.0565   -0.5939   -0.0112 O   0  0  0  1  0  0  0  0  0  0  0  0
    2.3436    4.2115    0.0023 N   0  0  0  1  0  0  0  0  0  0  0  0
    3.0622    4.6013   -1.1353 N   0  0  0  1  0  0  0  0  0  0  0  0
   -1.2051   -2.3027    0.0012 C   0  0  0  1  0  0  0  0  0  0  0  0
   -1.2926   -0.7753    0.0102 C   0  0  0  1  0  0  0  0  0  0  0  0
   -1.6344   -1.5686    1.2731 C   0  0  0  1  0  0  0  0  0  0  0  0
   -2.2823   -3.0675   -0.7707 C   0  0  0  1  0  0  0  0  0  0  0  0
    0.1901   -2.9303   -0.0155 C   0  0  0  1  0  0  0  0  0  0  0  0
    0.0021   -0.0041    0.0020 C   0  0  0  1  0  0  0  0  0  0  0  0
   -3.0857   -1.6540    1.6697 C   0  0  0  1  0  0  0  0  0  0  0  0
   -3.4203   -2.1739    2.8284 C   0  0  0  1  0  0  0  0  0  0  0  0
    1.2685    2.0148    0.0008 C   0  0  0  1  0  0  0  0  0  0  0  0
    1.0475    3.5287    0.0110 C   0  0  0  1  0  0  0  0  0  0  0  0
    3.0590    4.5709    1.0887 C   0  0  0  1  0  0  0  0  0  0  0  0
    4.1934    5.1686    0.6563 C   0  0  0  1  0  0  0  0  0  0  0  0
    4.1681    5.1794   -0.7421 C   0  0  0  1  0  0  0  0  0  0  0  0
    2.6647    4.3473    2.5259 C   0  0  0  1  0  0  0  0  0  0  0  0
    5.2350    5.7495   -1.6408 C   0  0  0  1  0  0  0  0  0  0  0  0
   -2.1176   -0.3152   -0.5337 H   0  0  0  1  0  0  0  0  0  0  0  0
   -0.9227   -1.5327    2.0979 H   0  0  0  1  0  0  0  0  0  0  0  0
    0.7407   -2.6155    0.8710 H   0  0  0  1  0  0  0  0  0  0  0  0
    0.0999   -4.0166   -0.0205 H   0  0  0  1  0  0  0  0  0  0  0  0
   -2.2571   -2.7713   -1.8194 H   0  0  0  1  0  0  0  0  0  0  0  0
   -2.0952   -4.1383   -0.6910 H   0  0  0  1  0  0  0  0  0  0  0  0
   -3.2619   -2.8376   -0.3516 H   0  0  0  1  0  0  0  0  0  0  0  0
    0.7237   -2.6060   -0.9089 H   0  0  0  1  0  0  0  0  0  0  0  0
   -3.8507   -1.2878    1.0010 H   0  0  0  1  0  0  0  0  0  0  0  0
    1.8379    1.7248    0.8838 H   0  0  0  1  0  0  0  0  0  0  0  0
    1.8209    1.7343   -0.8960 H   0  0  0  1  0  0  0  0  0  0  0  0
    0.4951    3.8092    0.9078 H   0  0  0  1  0  0  0  0  0  0  0  0
    0.4781    3.8188   -0.8720 H   0  0  0  1  0  0  0  0  0  0  0  0
    4.9777    5.5703    1.2808 H   0  0  0  1  0  0  0  0  0  0  0  0
    3.0446    3.3822    2.8610 H   0  0  0  1  0  0  0  0  0  0  0  0
    3.0861    5.1388    3.1456 H   0  0  0  1  0  0  0  0  0  0  0  0
    1.5780    4.3593    2.6106 H   0  0  0  1  0  0  0  0  0  0  0  0
    5.0139    6.7965   -1.8482 H   0  0  0  1  0  0  0  0  0  0  0  0
    6.2041    5.6736   -1.1477 H   0  0  0  1  0  0  0  0  0  0  0  0
    5.2586    5.1909   -2.5764 H   0  0  0  1  0  0  0  0  0  0  0  0
  1 14  1  0  0  0  0
  2 14  1  0  0  0  0
  3 12  1  0  0  0  0
  3 15  1  0  0  0  0
  4 12  2  0  0  0  0
  5  6  4  0  0  0  0
  5 16  1  0  0  0  0
  5 17  4  0  0  0  0
  6 19  4  0  0  0  0
  7  8  1  0  0  0  0
  7  9  1  0  0  0  0
  7 10  1  0  0  0  0
  7 11  1  0  0  0  0
  8  9  1  0  0  0  0
  8 12  1  0  0  0  0
  8 22  1  0  0  0  0
  9 13  1  0  0  0  0
  9 23  1  0  0  0  0
 10 26  1  0  0  0  0
 10 27  1  0  0  0  0
 10 28  1  0  0  0  0
 11 24  1  0  0  0  0
 11 25  1  0  0  0  0
 11 29  1  0  0  0  0
 13 14  2  0  0  0  0
 13 30  1  0  0  0  0
 15 16  1  0  0  0  0
 15 31  1  0  0  0  0
 15 32  1  0  0  0  0
 16 33  1  0  0  0  0
 16 34  1  0  0  0  0
 17 18  4  0  0  0  0
 17 20  1  0  0  0  0
 18 19  4  0  0  0  0
 18 35  1  0  0  0  0
 19 21  1  0  0  0  0
 20 36  1  0  0  0  0
 20 37  1  0  0  0  0
 20 38  1  0  0  0  0
 21 39  1  0  0  0  0
 21 40  1  0  0  0  0
 21 41  1  0  0  0  0
M  END
> <Activity>
0.01

> <Mapped(file=2032.csv.activities,property=Cached(PUBCHEM_COMPOUND_CID))>
100

> <MatchIndices>
85 

> <PUBCHEM_ATOM_DEF_STEREO_COUNT>
0

> <PUBCHEM_ATOM_UDEF_STEREO_COUNT>
2

> <PUBCHEM_BONDANNOTATIONS>
17  18  8
18  19  8
5  17  8
5  6  8
6  19  8
8  12  3
9  13  3

> <PUBCHEM_BOND_DEF_STEREO_COUNT>
0

> <PUBCHEM_BOND_UDEF_STEREO_COUNT>
0

> <PUBCHEM_CACTVS_COMPLEXITY>
435

> <PUBCHEM_CACTVS_HBOND_ACCEPTOR>
3

> <PUBCHEM_CACTVS_HBOND_DONOR>
0

> <PUBCHEM_CACTVS_ROTATABLE_BOND>
6

> <PUBCHEM_CACTVS_SUBSKEYS>
AAADceBzMAAGAAAAAAAAAAAAGAAAAWAAAAAAAAAAAAAAAAABgAAAHgIIAAAADwrhloYyiJIIBACqASTyTACQBAAhggAQWCE4ZBgCIBJAwdAHhAhkiADYSAKIAAAPgAAAAAAAAAAAAAAAAAAAAAAAAAAAAA==

> <PUBCHEM_CACTVS_TAUTO_COUNT>
1

> <PUBCHEM_CACTVS_TPSA>
44.1

> <PUBCHEM_COMPONENT_COUNT>
1

> <PUBCHEM_COMPOUND_CANONICALIZED>
1

> <PUBCHEM_COMPOUND_CID>
661024

> <PUBCHEM_COORDINATE_TYPE>
1
5
255

> <PUBCHEM_EXACT_MASS>
330.090183

> <PUBCHEM_HEAVY_ATOM_COUNT>
21

> <PUBCHEM_ISOTOPIC_ATOM_COUNT>
0

> <PUBCHEM_IUPAC_CAS_NAME>
3-(2,2-dichloroethenyl)-2,2-dimethyl-1-cyclopropanecarboxylic acid 2-(3,5-dimethyl-1-pyrazolyl)ethyl ester

> <PUBCHEM_IUPAC_INCHI>
InChI=1S/C15H20Cl2N2O2/c1-9-7-10(2)19(18-9)5-6-21-14(20)13-11(8-12(16)17)15(13,3)4/h7-8,11,13H,5-6H2,1-4H3

> <PUBCHEM_IUPAC_INCHIKEY>
DHKMJAHFQFYQLM-UHFFFAOYSA-N

> <PUBCHEM_IUPAC_NAME>
2-(3,5-dimethylpyrazol-1-yl)ethyl 3-(2,2-dichloroethenyl)-2,2-dimethylcyclopropane-1-carboxylate

> <PUBCHEM_IUPAC_OPENEYE_NAME>
2-(3,5-dimethylpyrazol-1-yl)ethyl 3-(2,2-dichlorovinyl)-2,2-dimethyl-cyclopropanecarboxylate

> <PUBCHEM_IUPAC_SYSTEMATIC_NAME>
2-(3,5-dimethylpyrazol-1-yl)ethyl 3-[2,2-bis(chloranyl)ethenyl]-2,2-dimethyl-cyclopropane-1-carboxylate

> <PUBCHEM_IUPAC_TRADITIONAL_NAME>
3-(2,2-dichlorovinyl)-2,2-dimethyl-cyclopropanecarboxylic acid 2-(3,5-dimethylpyrazol-1-yl)ethyl ester

> <PUBCHEM_MOLECULAR_FORMULA>
C15H20Cl2N2O2

> <PUBCHEM_MOLECULAR_WEIGHT>
331.2375

> <PUBCHEM_MONOISOTOPIC_WEIGHT>
330.090183

> <PUBCHEM_OPENEYE_CAN_SMILES>
CC1=CC(=NN1CCOC(=O)C2C(C2(C)C)C=C(Cl)Cl)C

> <PUBCHEM_OPENEYE_ISO_SMILES>
CC1=CC(=NN1CCOC(=O)C2C(C2(C)C)C=C(Cl)Cl)C

> <PUBCHEM_TOTAL_CHARGE>
0

> <PUBCHEM_XLOGP3_AA>
3.8

$$$$
Largest isolated from Written by BCL::WriteToMDL,1167729
JMcorina  04211410293D 1   1.00000     0.00000 
CORINA 3.49 0026  01.06.2011
 45 47  0  0  0  0  0  0  0  0999 V2000
    0.0473    1.5658    0.7763 S   0  0  0  1  0  0  0  0  0  0  0  0
    2.5857    3.3364    1.3352 S   0  0  0  1  0  0  0  0  0  0  0  0
   -2.2551    0.1453   -0.0582 O   0  0  0  1  0  0  0  0  0  0  0  0
   -1.7529   -1.9591    0.4332 N   0  0  0  1  0  0  0  0  0  0  0  0
    2.6916    0.8729    0.9769 N   0  0  0  1  0  0  0  0  0  0  0  0
    3.8878    1.2234    1.1678 N   0  0  0  1  0  0  0  0  0  0  0  0
   -3.1548   -2.3880    0.3447 C   0  0  0  1  0  0  0  0  0  0  0  0
   -3.4638   -3.3655    1.4472 C   0  0  0  1  0  0  0  0  0  0  0  0
   -0.7769   -2.9298    0.6831 C   0  0  0  1  0  0  0  0  0  0  0  0
   -1.1374   -4.0504    1.4481 C   0  0  0  1  0  0  0  0  0  0  0  0
   -2.5201   -4.1469    1.9564 C   0  0  0  1  0  0  0  0  0  0  0  0
   -4.0685   -1.1679    0.4769 C   0  0  0  1  0  0  0  0  0  0  0  0
   -3.3969   -3.0570   -1.0098 C   0  0  0  1  0  0  0  0  0  0  0  0
   -1.4147   -0.6645    0.2721 C   0  0  0  1  0  0  0  0  0  0  0  0
    0.5114   -2.8084    0.1984 C   0  0  0  1  0  0  0  0  0  0  0  0
   -0.1946   -5.0384    1.7123 C   0  0  0  1  0  0  0  0  0  0  0  0
   -2.8580   -5.1282    3.0491 C   0  0  0  1  0  0  0  0  0  0  0  0
    1.0893   -4.9047    1.2206 C   0  0  0  1  0  0  0  0  0  0  0  0
    1.4411   -3.7969    0.4686 C   0  0  0  1  0  0  0  0  0  0  0  0
    0.0077   -0.2230    0.5024 C   0  0  0  1  0  0  0  0  0  0  0  0
    2.1141   -5.9727    1.5042 C   0  0  0  1  0  0  0  0  0  0  0  0
    1.7777    1.8011    1.0110 C   0  0  0  1  0  0  0  0  0  0  0  0
    4.1258    2.4761    1.3837 C   0  0  0  1  0  0  0  0  0  0  0  0
    5.4785    3.0920    1.6321 C   0  0  0  1  0  0  0  0  0  0  0  0
   -4.4713   -3.4316    1.8306 H   0  0  0  1  0  0  0  0  0  0  0  0
   -3.9971   -0.5610   -0.4257 H   0  0  0  1  0  0  0  0  0  0  0  0
   -5.0985   -1.4982    0.6120 H   0  0  0  1  0  0  0  0  0  0  0  0
   -3.7610   -0.5753    1.3385 H   0  0  0  1  0  0  0  0  0  0  0  0
   -2.7440   -3.9241   -1.1086 H   0  0  0  1  0  0  0  0  0  0  0  0
   -4.4371   -3.3758   -1.0769 H   0  0  0  1  0  0  0  0  0  0  0  0
   -3.1821   -2.3475   -1.8090 H   0  0  0  1  0  0  0  0  0  0  0  0
    0.7913   -1.9462   -0.3888 H   0  0  0  1  0  0  0  0  0  0  0  0
   -0.4647   -5.9044    2.2984 H   0  0  0  1  0  0  0  0  0  0  0  0
   -3.9186   -5.0536    3.2892 H   0  0  0  1  0  0  0  0  0  0  0  0
   -2.6322   -6.1397    2.7116 H   0  0  0  1  0  0  0  0  0  0  0  0
   -2.2677   -4.9011    3.9368 H   0  0  0  1  0  0  0  0  0  0  0  0
    2.4484   -3.7036    0.0903 H   0  0  0  1  0  0  0  0  0  0  0  0
    0.6108   -0.4702   -0.3712 H   0  0  0  1  0  0  0  0  0  0  0  0
    0.4094   -0.7336    1.3776 H   0  0  0  1  0  0  0  0  0  0  0  0
    2.0841   -6.7238    0.7148 H   0  0  0  1  0  0  0  0  0  0  0  0
    3.1065   -5.5234    1.5407 H   0  0  0  1  0  0  0  0  0  0  0  0
    1.8928   -6.4433    2.4621 H   0  0  0  1  0  0  0  0  0  0  0  0
    5.6882    3.0890    2.7018 H   0  0  0  1  0  0  0  0  0  0  0  0
    6.2420    2.5148    1.1106 H   0  0  0  1  0  0  0  0  0  0  0  0
    5.4838    4.1179    1.2637 H   0  0  0  1  0  0  0  0  0  0  0  0
  1 20  1  0  0  0  0
  1 22  1  0  0  0  0
  2 22  4  0  0  0  0
  2 23  4  0  0  0  0
  3 14  2  0  0  0  0
  4  7  1  0  0  0  0
  4  9  1  0  0  0  0
  4 14  1  0  0  0  0
  5  6  4  0  0  0  0
  5 22  4  0  0  0  0
  6 23  4  0  0  0  0
  7  8  1  0  0  0  0
  7 12  1  0  0  0  0
  7 13  1  0  0  0  0
  8 11  2  0  0  0  0
  8 25  1  0  0  0  0
  9 10  4  0  0  0  0
  9 15  4  0  0  0  0
 10 11  1  0  0  0  0
 10 16  4  0  0  0  0
 11 17  1  0  0  0  0
 12 26  1  0  0  0  0
 12 27  1  0  0  0  0
 12 28  1  0  0  0  0
 13 29  1  0  0  0  0
 13 30  1  0  0  0  0
 13 31  1  0  0  0  0
 14 20  1  0  0  0  0
 15 19  4  0  0  0  0
 15 32  1  0  0  0  0
 16 18  4  0  0  0  0
 16 33  1  0  0  0  0
 17 34  1  0  0  0  0
 17 35  1  0  0  0  0
 17 36  1  0  0  0  0
 18 19  4  0  0  0  0
 18 21  1  0  0  0  0
 19 37  1  0  0  0  0
 20 38  1  0  0  0  0
 20 39  1  0  0  0  0
 21 40  1  0  0  0  0
 21 41  1  0  0  0  0
 21 42  1  0  0  0  0
 23 24  1  0  0  0  0
 24 43  1  0  0  0  0
 24 44  1  0  0  0  0
 24 45  1  0  0  0  0
M  END
> <Activity>
0.01

> <Mapped(file=2032.csv.activities,property=Cached(PUBCHEM_COMPOUND_CID))>
100

> <MatchIndices>
195 

> <PUBCHEM_ATOM_DEF_STEREO_COUNT>
0

> <PUBCHEM_ATOM_UDEF_STEREO_COUNT>
0

> <PUBCHEM_BONDANNOTATIONS>
10  16  8
15  19  8
16  18  8
18  19  8
2  22  8
2  23  8
5  22  8
5  6  8
6  23  8
9  10  8
9  15  8

> <PUBCHEM_BOND_DEF_STEREO_COUNT>
0

> <PUBCHEM_BOND_UDEF_STEREO_COUNT>
0

> <PUBCHEM_CACTVS_COMPLEXITY>
522

> <PUBCHEM_CACTVS_HBOND_ACCEPTOR>
3

> <PUBCHEM_CACTVS_HBOND_DONOR>
0

> <PUBCHEM_CACTVS_ROTATABLE_BOND>
3

> <PUBCHEM_CACTVS_SUBSKEYS>
AAADceB7IABgAAAAAAAAAAAAAAAAAWAAAAAwQAAAAAAAAACBwAAAHgQIAAAADIiF2gCywIMAAAiuAiVyUACSAYBhAhAYiAAQZIgIICLAkZGEIAhgjADIyAcQgMAOCAACAAACAAAQAAQAAAQAAAAAAAAAAA==

> <PUBCHEM_CACTVS_TAUTO_COUNT>
1

> <PUBCHEM_CACTVS_TPSA>
99.6

> <PUBCHEM_COMPONENT_COUNT>
1

> <PUBCHEM_COMPOUND_CANONICALIZED>
1

> <PUBCHEM_COMPOUND_CID>
1167729

> <PUBCHEM_COORDINATE_TYPE>
1
5
255

> <PUBCHEM_EXACT_MASS>
359.112604

> <PUBCHEM_HEAVY_ATOM_COUNT>
24

> <PUBCHEM_ISOTOPIC_ATOM_COUNT>
0

> <PUBCHEM_IUPAC_CAS_NAME>
2-[(5-methyl-1,3,4-thiadiazol-2-yl)thio]-1-(2,2,4,6-tetramethyl-1-quinolinyl)ethanone

> <PUBCHEM_IUPAC_INCHI>
InChI=1S/C18H21N3OS2/c1-11-6-7-15-14(8-11)12(2)9-18(4,5)21(15)16(22)10-23-17-20-19-13(3)24-17/h6-9H,10H2,1-5H3

> <PUBCHEM_IUPAC_INCHIKEY>
FMBLBOACTYGHCS-UHFFFAOYSA-N

> <PUBCHEM_IUPAC_NAME>
2-[(5-methyl-1,3,4-thiadiazol-2-yl)sulfanyl]-1-(2,2,4,6-tetramethylquinolin-1-yl)ethanone

> <PUBCHEM_IUPAC_OPENEYE_NAME>
2-[(5-methyl-1,3,4-thiadiazol-2-yl)sulfanyl]-1-(2,2,4,6-tetramethyl-1-quinolyl)ethanone

> <PUBCHEM_IUPAC_SYSTEMATIC_NAME>
2-[(5-methyl-1,3,4-thiadiazol-2-yl)sulfanyl]-1-(2,2,4,6-tetramethylquinolin-1-yl)ethanone

> <PUBCHEM_IUPAC_TRADITIONAL_NAME>
2-[(5-methyl-1,3,4-thiadiazol-2-yl)thio]-1-(2,2,4,6-tetramethyl-1-quinolyl)ethanone

> <PUBCHEM_MOLECULAR_FORMULA>
C18H21N3OS2

> <PUBCHEM_MOLECULAR_WEIGHT>
359.50884

> <PUBCHEM_MONOISOTOPIC_WEIGHT>
359.112604

> <PUBCHEM_OPENEYE_CAN_SMILES>
CC1=CC2=C(C=C1)N(C(C=C2C)(C)C)C(=O)CSC3=NN=C(S3)C

> <PUBCHEM_OPENEYE_ISO_SMILES>
CC1=CC2=C(C=C1)N(C(C=C2C)(C)C)C(=O)CSC3=NN=C(S3)C

> <PUBCHEM_TOTAL_CHARGE>
0

> <PUBCHEM_XLOGP3_AA>
3.9

$$$$
Largest isolated from Written by BCL::WriteToMDL,2463554
JMcorina  04211410293D 1   1.00000     0.00000 
CORINA 3.49 0026  01.06.2011
 49 51  0  0  0  0  0  0  0  0999 V2000
   -0.0218    1.7577    0.0117 S   0  0  0  1  0  0  0  0  0  0  0  0
   -1.7193   -3.8718   -1.7257 S   0  0  0  1  0  0  0  0  0  0  0  0
   -3.3044   -6.3732   -2.7071 S   0  0  0  1  0  0  0  0  0  0  0  0
    3.2345    4.0737   -0.0069 O   0  0  0  1  0  0  0  0  0  0  0  0
    1.0410    4.3412    0.0154 O   0  0  0  1  0  0  0  0  0  0  0  0
   -1.0846   -0.8308    0.0080 N   0  0  0  1  0  0  0  0  0  0  0  0
    0.7170   -2.0066   -0.0199 N   0  0  0  1  0  0  0  0  0  0  0  0
    1.0681   -0.7702   -0.0127 N   0  0  0  1  0  0  0  0  0  0  0  0
   -2.9239   -5.8272   -0.2803 N   0  0  0  1  0  0  0  0  0  0  0  0
    3.3785    5.5185   -0.0006 C   0  0  0  1  0  0  0  0  0  0  0  0
    2.7234    6.0908    1.2581 C   0  0  0  1  0  0  0  0  0  0  0  0
    4.8644    5.8830   -0.0128 C   0  0  0  1  0  0  0  0  0  0  0  0
    2.6995    6.1043   -1.2402 C   0  0  0  1  0  0  0  0  0  0  0  0
   -2.4956   -0.4370    0.0240 C   0  0  0  1  0  0  0  0  0  0  0  0
   -0.5824   -2.1027   -0.0102 C   0  0  0  1  0  0  0  0  0  0  0  0
    0.0021   -0.0041    0.0020 C   0  0  0  1  0  0  0  0  0  0  0  0
   -1.3835   -3.3791   -0.0168 C   0  0  0  1  0  0  0  0  0  0  0  0
    1.7562    2.0963   -0.0035 C   0  0  0  1  0  0  0  0  0  0  0  0
    1.9840    3.5860    0.0024 C   0  0  0  1  0  0  0  0  0  0  0  0
   -2.9748   -0.3157    1.4719 C   0  0  0  1  0  0  0  0  0  0  0  0
   -2.6407   -5.3470   -1.4434 C   0  0  0  1  0  0  0  0  0  0  0  0
   -3.9693   -7.4629   -1.4926 C   0  0  0  1  0  0  0  0  0  0  0  0
   -3.6392   -6.9683   -0.2270 C   0  0  0  1  0  0  0  0  0  0  0  0
   -4.7072   -8.6364   -1.6199 C   0  0  0  1  0  0  0  0  0  0  0  0
   -4.0721   -7.6864    0.9075 C   0  0  0  1  0  0  0  0  0  0  0  0
   -5.1191   -9.3214   -0.4977 C   0  0  0  1  0  0  0  0  0  0  0  0
   -4.7992   -8.8414    0.7634 C   0  0  0  1  0  0  0  0  0  0  0  0
    3.2071    5.6736    2.1413 H   0  0  0  1  0  0  0  0  0  0  0  0
    2.8315    7.1755    1.2629 H   0  0  0  1  0  0  0  0  0  0  0  0
    5.3312    5.4753   -0.9095 H   0  0  0  1  0  0  0  0  0  0  0  0
    4.9726    6.9676   -0.0080 H   0  0  0  1  0  0  0  0  0  0  0  0
    5.3482    5.4657    0.8704 H   0  0  0  1  0  0  0  0  0  0  0  0
    1.6409    5.8446   -1.2315 H   0  0  0  1  0  0  0  0  0  0  0  0
    2.8077    7.1889   -1.2355 H   0  0  0  1  0  0  0  0  0  0  0  0
    3.1663    5.6965   -2.1369 H   0  0  0  1  0  0  0  0  0  0  0  0
    1.6648    5.8312    1.2668 H   0  0  0  1  0  0  0  0  0  0  0  0
   -2.6104    0.5235   -0.4784 H   0  0  0  1  0  0  0  0  0  0  0  0
   -3.0891   -1.1909   -0.4932 H   0  0  0  1  0  0  0  0  0  0  0  0
   -2.3259   -3.2194    0.5072 H   0  0  0  1  0  0  0  0  0  0  0  0
   -0.8183   -4.1654    0.4837 H   0  0  0  1  0  0  0  0  0  0  0  0
    2.2177    1.6547    0.8798 H   0  0  0  1  0  0  0  0  0  0  0  0
    2.2007    1.6643   -0.9001 H   0  0  0  1  0  0  0  0  0  0  0  0
   -2.8599   -1.2762    1.9743 H   0  0  0  1  0  0  0  0  0  0  0  0
   -2.3813    0.4382    1.9891 H   0  0  0  1  0  0  0  0  0  0  0  0
   -4.0246   -0.0227    1.4838 H   0  0  0  1  0  0  0  0  0  0  0  0
   -4.9579   -9.0108   -2.6014 H   0  0  0  1  0  0  0  0  0  0  0  0
   -3.8295   -7.3250    1.8959 H   0  0  0  1  0  0  0  0  0  0  0  0
   -5.6918  -10.2313   -0.6001 H   0  0  0  1  0  0  0  0  0  0  0  0
   -5.1247   -9.3818    1.6400 H   0  0  0  1  0  0  0  0  0  0  0  0
  1 16  1  0  0  0  0
  1 18  1  0  0  0  0
  2 17  1  0  0  0  0
  2 21  1  0  0  0  0
  3 21  4  0  0  0  0
  3 22  4  0  0  0  0
  4 10  1  0  0  0  0
  4 19  1  0  0  0  0
  5 19  2  0  0  0  0
  6 14  1  0  0  0  0
  6 15  4  0  0  0  0
  6 16  4  0  0  0  0
  7  8  4  0  0  0  0
  7 15  4  0  0  0  0
  8 16  4  0  0  0  0
  9 21  4  0  0  0  0
  9 23  4  0  0  0  0
 10 11  1  0  0  0  0
 10 12  1  0  0  0  0
 10 13  1  0  0  0  0
 11 28  1  0  0  0  0
 11 29  1  0  0  0  0
 11 36  1  0  0  0  0
 12 30  1  0  0  0  0
 12 31  1  0  0  0  0
 12 32  1  0  0  0  0
 13 33  1  0  0  0  0
 13 34  1  0  0  0  0
 13 35  1  0  0  0  0
 14 20  1  0  0  0  0
 14 37  1  0  0  0  0
 14 38  1  0  0  0  0
 15 17  1  0  0  0  0
 17 39  1  0  0  0  0
 17 40  1  0  0  0  0
 18 19  1  0  0  0  0
 18 41  1  0  0  0  0
 18 42  1  0  0  0  0
 20 43  1  0  0  0  0
 20 44  1  0  0  0  0
 20 45  1  0  0  0  0
 22 23  4  0  0  0  0
 22 24  4  0  0  0  0
 23 25  4  0  0  0  0
 24 26  4  0  0  0  0
 24 46  1  0  0  0  0
 25 27  4  0  0  0  0
 25 47  1  0  0  0  0
 26 27  4  0  0  0  0
 26 48  1  0  0  0  0
 27 49  1  0  0  0  0
M  END
> <Activity>
0.01

> <Mapped(file=2032.csv.activities,property=Cached(PUBCHEM_COMPOUND_CID))>
100

> <MatchIndices>
121 

> <PUBCHEM_ATOM_DEF_STEREO_COUNT>
0

> <PUBCHEM_ATOM_UDEF_STEREO_COUNT>
0

> <PUBCHEM_BONDANNOTATIONS>
22  23  8
22  24  8
23  25  8
24  26  8
25  27  8
26  27  8
3  21  8
3  22  8
6  15  8
6  16  8
7  15  8
7  8  8
8  16  8
9  21  8
9  23  8

> <PUBCHEM_BOND_DEF_STEREO_COUNT>
0

> <PUBCHEM_BOND_UDEF_STEREO_COUNT>
0

> <PUBCHEM_CACTVS_COMPLEXITY>
506

> <PUBCHEM_CACTVS_HBOND_ACCEPTOR>
5

> <PUBCHEM_CACTVS_HBOND_DONOR>
0

> <PUBCHEM_CACTVS_ROTATABLE_BOND>
9

> <PUBCHEM_CACTVS_SUBSKEYS>
AAADceB7sABgAAAAAAAAAAAAAAAAAWLAAAAwAAAAAAAAAFgB/AAAHgQIAAAADEzF1wSz2bcMFAiuASbybACT8athCrhd2Dw4ZJiIKKLgmZGGIAhgiALIyAcQAAAAAAAAAAAAAQAAAAAAAAACAAAAAAAAAA==

> <PUBCHEM_CACTVS_TAUTO_COUNT>
1

> <PUBCHEM_CACTVS_TPSA>
149

> <PUBCHEM_COMPONENT_COUNT>
1

> <PUBCHEM_COMPOUND_CANONICALIZED>
1

> <PUBCHEM_COMPOUND_CID>
2463554

> <PUBCHEM_COORDINATE_TYPE>
1
5
255

> <PUBCHEM_EXACT_MASS>
422.090489

> <PUBCHEM_HEAVY_ATOM_COUNT>
27

> <PUBCHEM_ISOTOPIC_ATOM_COUNT>
0

> <PUBCHEM_IUPAC_CAS_NAME>
2-[[5-[(1,3-benzothiazol-2-ylthio)methyl]-4-ethyl-1,2,4-triazol-3-yl]thio]acetic acid tert-butyl ester

> <PUBCHEM_IUPAC_INCHI>
InChI=1S/C18H22N4O2S3/c1-5-22-14(10-26-17-19-12-8-6-7-9-13(12)27-17)20-21-16(22)25-11-15(23)24-18(2,3)4/h6-9H,5,10-11H2,1-4H3

> <PUBCHEM_IUPAC_INCHIKEY>
HDENPJOMHSTYJA-UHFFFAOYSA-N

> <PUBCHEM_IUPAC_NAME>
tert-butyl 2-[[5-(1,3-benzothiazol-2-ylsulfanylmethyl)-4-ethyl-1,2,4-triazol-3-yl]sulfanyl]acetate

> <PUBCHEM_IUPAC_OPENEYE_NAME>
tert-butyl 2-[[5-(1,3-benzothiazol-2-ylsulfanylmethyl)-4-ethyl-1,2,4-triazol-3-yl]sulfanyl]acetate

> <PUBCHEM_IUPAC_SYSTEMATIC_NAME>
tert-butyl 2-[[5-(1,3-benzothiazol-2-ylsulfanylmethyl)-4-ethyl-1,2,4-triazol-3-yl]sulfanyl]ethanoate

> <PUBCHEM_IUPAC_TRADITIONAL_NAME>
2-[[5-[(1,3-benzothiazol-2-ylthio)methyl]-4-ethyl-1,2,4-triazol-3-yl]thio]acetic acid tert-butyl ester

> <PUBCHEM_MOLECULAR_FORMULA>
C18H22N4O2S3

> <PUBCHEM_MOLECULAR_WEIGHT>
422.58788

> <PUBCHEM_MONOISOTOPIC_WEIGHT>
422.090489

> <PUBCHEM_OPENEYE_CAN_SMILES>
CCN1C(=NN=C1SCC(=O)OC(C)(C)C)CSC2=NC3=CC=CC=C3S2

> <PUBCHEM_OPENEYE_ISO_SMILES>
CCN1C(=NN=C1SCC(=O)OC(C)(C)C)CSC2=NC3=CC=CC=C3S2

> <PUBCHEM_TOTAL_CHARGE>
0

> <PUBCHEM_XLOGP3_AA>
4.3

$$$$
Largest isolated from Written by BCL::WriteToMDL,616271
JMcorina  04211410293D 1   1.00000     0.00000 
CORINA 3.49 0026  01.06.2011
 48 50  0  0  0  0  0  0  0  0999 V2000
    0.2447    1.4149   -0.0152 S   0  0  0  1  0  0  0  0  0  0  0  0
    5.5383    5.0839   -1.1512 O   0  0  0  1  0  0  0  0  0  0  0  0
   -1.8744   -3.0159   -0.4820 O   0  0  0  1  0  0  0  0  0  0  0  0
    1.2254    4.0165    0.2703 O   0  0  0  1  0  0  0  0  0  0  0  0
   -0.8490   -1.0344   -0.2768 N   0  0  0  1  0  0  0  0  0  0  0  0
    1.4979   -0.8946   -0.3585 N   0  0  0  1  0  0  0  0  0  0  0  0
    3.4328    3.8269    0.1535 N   0  0  0  1  0  0  0  0  0  0  0  0
    0.4675   -3.0352   -0.5836 C   0  0  0  1  0  0  0  0  0  0  0  0
    6.6590    5.7664   -1.7172 C   0  0  0  1  0  0  0  0  0  0  0  0
    1.6289   -2.2308   -0.5319 C   0  0  0  1  0  0  0  0  0  0  0  0
   -0.8389   -2.3768   -0.4458 C   0  0  0  1  0  0  0  0  0  0  0  0
    0.3211   -0.3313   -0.2378 C   0  0  0  1  0  0  0  0  0  0  0  0
    4.6622    5.8304   -0.4272 C   0  0  0  1  0  0  0  0  0  0  0  0
    3.6006    5.2157    0.2336 C   0  0  0  1  0  0  0  0  0  0  0  0
    0.5809   -4.4129   -0.7615 C   0  0  0  1  0  0  0  0  0  0  0  0
    2.0104    1.8124   -0.0396 C   0  0  0  1  0  0  0  0  0  0  0  0
    2.8840   -2.8318   -0.6612 C   0  0  0  1  0  0  0  0  0  0  0  0
    7.7691    5.8796   -0.6704 C   0  0  0  1  0  0  0  0  0  0  0  0
    7.1757    4.9834   -2.9259 C   0  0  0  1  0  0  0  0  0  0  0  0
   -2.1255   -0.3287   -0.1406 C   0  0  0  1  0  0  0  0  0  0  0  0
    4.8262    7.2030   -0.3401 C   0  0  0  1  0  0  0  0  0  0  0  0
    2.7103    5.9822    0.9705 C   0  0  0  1  0  0  0  0  0  0  0  0
    2.1934    3.2976    0.1392 C   0  0  0  1  0  0  0  0  0  0  0  0
    1.8295   -4.9813   -0.8858 C   0  0  0  1  0  0  0  0  0  0  0  0
    2.9728   -4.1940   -0.8365 C   0  0  0  1  0  0  0  0  0  0  0  0
    3.9344    7.9608    0.3966 C   0  0  0  1  0  0  0  0  0  0  0  0
    2.8776    7.3523    1.0477 C   0  0  0  1  0  0  0  0  0  0  0  0
    6.3548    6.7641   -2.0337 H   0  0  0  1  0  0  0  0  0  0  0  0
   -0.3041   -5.0307   -0.8011 H   0  0  0  1  0  0  0  0  0  0  0  0
    2.5130    1.2842    0.7706 H   0  0  0  1  0  0  0  0  0  0  0  0
    2.4386    1.5059   -0.9940 H   0  0  0  1  0  0  0  0  0  0  0  0
    3.7800   -2.2300   -0.6240 H   0  0  0  1  0  0  0  0  0  0  0  0
    7.4010    6.4374    0.1906 H   0  0  0  1  0  0  0  0  0  0  0  0
    6.3848    4.9027   -3.6716 H   0  0  0  1  0  0  0  0  0  0  0  0
    8.0305    5.5040   -3.3576 H   0  0  0  1  0  0  0  0  0  0  0  0
    7.4798    3.9857   -2.6095 H   0  0  0  1  0  0  0  0  0  0  0  0
    8.0732    4.8819   -0.3540 H   0  0  0  1  0  0  0  0  0  0  0  0
    8.6239    6.4002   -1.1022 H   0  0  0  1  0  0  0  0  0  0  0  0
    4.2087    3.2464    0.1083 H   0  0  0  1  0  0  0  0  0  0  0  0
   -2.9449   -1.0451   -0.2000 H   0  0  0  1  0  0  0  0  0  0  0  0
   -2.1579    0.1812    0.8223 H   0  0  0  1  0  0  0  0  0  0  0  0
   -2.2237    0.4029   -0.9426 H   0  0  0  1  0  0  0  0  0  0  0  0
    5.6507    7.6815   -0.8476 H   0  0  0  1  0  0  0  0  0  0  0  0
    1.8862    5.5090    1.4836 H   0  0  0  1  0  0  0  0  0  0  0  0
    1.9203   -6.0486   -1.0238 H   0  0  0  1  0  0  0  0  0  0  0  0
    3.9435   -4.6566   -0.9365 H   0  0  0  1  0  0  0  0  0  0  0  0
    4.0642    9.0308    0.4640 H   0  0  0  1  0  0  0  0  0  0  0  0
    2.1836    7.9482    1.6219 H   0  0  0  1  0  0  0  0  0  0  0  0
  1 12  1  0  0  0  0
  1 16  1  0  0  0  0
  2  9  1  0  0  0  0
  2 13  1  0  0  0  0
  3 11  2  0  0  0  0
  4 23  2  0  0  0  0
  5 11  1  0  0  0  0
  5 12  1  0  0  0  0
  5 20  1  0  0  0  0
  6 10  1  0  0  0  0
  6 12  2  0  0  0  0
  7 14  1  0  0  0  0
  7 23  1  0  0  0  0
  7 39  1  0  0  0  0
  8 10  4  0  0  0  0
  8 11  1  0  0  0  0
  8 15  4  0  0  0  0
  9 18  1  0  0  0  0
  9 19  1  0  0  0  0
  9 28  1  0  0  0  0
 10 17  4  0  0  0  0
 13 14  4  0  0  0  0
 13 21  4  0  0  0  0
 14 22  4  0  0  0  0
 15 24  4  0  0  0  0
 15 29  1  0  0  0  0
 16 23  1  0  0  0  0
 16 30  1  0  0  0  0
 16 31  1  0  0  0  0
 17 25  4  0  0  0  0
 17 32  1  0  0  0  0
 18 33  1  0  0  0  0
 18 37  1  0  0  0  0
 18 38  1  0  0  0  0
 19 34  1  0  0  0  0
 19 35  1  0  0  0  0
 19 36  1  0  0  0  0
 20 40  1  0  0  0  0
 20 41  1  0  0  0  0
 20 42  1  0  0  0  0
 21 26  4  0  0  0  0
 21 43  1  0  0  0  0
 22 27  4  0  0  0  0
 22 44  1  0  0  0  0
 24 25  4  0  0  0  0
 24 45  1  0  0  0  0
 25 46  1  0  0  0  0
 26 27  4  0  0  0  0
 26 47  1  0  0  0  0
 27 48  1  0  0  0  0
M  END
> <Activity>
0.01

> <Mapped(file=2032.csv.activities,property=Cached(PUBCHEM_COMPOUND_CID))>
100

> <MatchIndices>
185 

> <PUBCHEM_ATOM_DEF_STEREO_COUNT>
0

> <PUBCHEM_ATOM_UDEF_STEREO_COUNT>
0

> <PUBCHEM_BONDANNOTATIONS>
10  17  8
13  14  8
13  21  8
14  22  8
15  24  8
17  25  8
21  26  8
22  27  8
24  25  8
26  27  8
5  11  8
5  12  8
6  10  8
6  12  8
8  10  8
8  11  8
8  15  8

> <PUBCHEM_BOND_DEF_STEREO_COUNT>
0

> <PUBCHEM_BOND_UDEF_STEREO_COUNT>
0

> <PUBCHEM_CACTVS_COMPLEXITY>
581

> <PUBCHEM_CACTVS_HBOND_ACCEPTOR>
5

> <PUBCHEM_CACTVS_HBOND_DONOR>
1

> <PUBCHEM_CACTVS_ROTATABLE_BOND>
6

> <PUBCHEM_CACTVS_SUBSKEYS>
AAADceB7MABAAAAAAAAAAAAAAAAAAAAAAAAwYIAAAAAAAACBQAAAHgQQAAAADByl2AazxoPABAioAiVSdACCGAFlIhAJiAEPbMgOJjrE/ZuHOajk1hHY6ceYyACOAAAAAAACEAAAAAAAAAQgAAAAAAAAAA==

> <PUBCHEM_CACTVS_TAUTO_COUNT>
3

> <PUBCHEM_CACTVS_TPSA>
96.3

> <PUBCHEM_COMPONENT_COUNT>
1

> <PUBCHEM_COMPOUND_CANONICALIZED>
1

> <PUBCHEM_COMPOUND_CID>
616271

> <PUBCHEM_COORDINATE_TYPE>
1
5
255

> <PUBCHEM_EXACT_MASS>
383.130363

> <PUBCHEM_HEAVY_ATOM_COUNT>
27

> <PUBCHEM_ISOTOPIC_ATOM_COUNT>
0

> <PUBCHEM_IUPAC_CAS_NAME>
2-[(3-methyl-4-oxo-2-quinazolinyl)thio]-N-(2-propan-2-yloxyphenyl)acetamide

> <PUBCHEM_IUPAC_INCHI>
InChI=1S/C20H21N3O3S/c1-13(2)26-17-11-7-6-10-16(17)21-18(24)12-27-20-22-15-9-5-4-8-14(15)19(25)23(20)3/h4-11,13H,12H2,1-3H3,(H,21,24)

> <PUBCHEM_IUPAC_INCHIKEY>
GERKPZFBTRTLJO-UHFFFAOYSA-N

> <PUBCHEM_IUPAC_NAME>
2-(3-methyl-4-oxoquinazolin-2-yl)sulfanyl-N-(2-propan-2-yloxyphenyl)acetamide

> <PUBCHEM_IUPAC_OPENEYE_NAME>
N-(2-isopropoxyphenyl)-2-(3-methyl-4-oxo-quinazolin-2-yl)sulfanyl-acetamide

> <PUBCHEM_IUPAC_SYSTEMATIC_NAME>
2-(3-methyl-4-oxidanylidene-quinazolin-2-yl)sulfanyl-N-(2-propan-2-yloxyphenyl)ethanamide

> <PUBCHEM_IUPAC_TRADITIONAL_NAME>
N-(2-isopropoxyphenyl)-2-[(4-keto-3-methyl-quinazolin-2-yl)thio]acetamide

> <PUBCHEM_MOLECULAR_FORMULA>
C20H21N3O3S

> <PUBCHEM_MOLECULAR_WEIGHT>
383.46404

> <PUBCHEM_MONOISOTOPIC_WEIGHT>
383.130363

> <PUBCHEM_OPENEYE_CAN_SMILES>
CC(C)OC1=CC=CC=C1NC(=O)CSC2=NC3=CC=CC=C3C(=O)N2C

> <PUBCHEM_OPENEYE_ISO_SMILES>
CC(C)OC1=CC=CC=C1NC(=O)CSC2=NC3=CC=CC=C3C(=O)N2C

> <PUBCHEM_TOTAL_CHARGE>
0

> <PUBCHEM_XLOGP3_AA>
3.5

$$$$
Largest isolated from Written by BCL::WriteToMDL,973685
JMcorina  04211410293D 1   1.00000     0.00000 
CORINA 3.49 0026  01.06.2011
 34 36  0  0  0  0  0  0  0  0999 V2000
    1.1039    1.6279   -2.9160 Cl  0  0  0  1  0  0  0  0  0  0  0  0
   -0.0218    1.7577    0.0117 S   0  0  0  1  0  0  0  0  0  0  0  0
   -1.1075   -0.8030   -0.0501 N   0  0  0  1  0  0  0  0  0  0  0  0
    1.0690   -0.7310   -0.2926 N   0  0  0  1  0  0  0  0  0  0  0  0
    5.6937    2.9258   -1.0619 N   0  0  0  1  0  0  0  0  0  0  0  0
   -0.6720   -2.1105   -0.1904 C   0  0  0  1  0  0  0  0  0  0  0  0
   -2.4923   -0.3638    0.1387 C   0  0  0  1  0  0  0  0  0  0  0  0
    0.7230   -2.0436   -0.3444 C   0  0  0  1  0  0  0  0  0  0  0  0
   -0.0038    0.0004   -0.1146 C   0  0  0  1  0  0  0  0  0  0  0  0
   -1.3117   -3.3401   -0.2035 C   0  0  0  1  0  0  0  0  0  0  0  0
    1.4532   -3.2225   -0.5136 C   0  0  0  1  0  0  0  0  0  0  0  0
   -2.8109   -0.3099    1.6342 C   0  0  0  1  0  0  0  0  0  0  0  0
   -0.5754   -4.4959   -0.3679 C   0  0  0  1  0  0  0  0  0  0  0  0
    0.8013   -4.4356   -0.5224 C   0  0  0  1  0  0  0  0  0  0  0  0
    1.6759    2.1048   -0.3075 C   0  0  0  1  0  0  0  0  0  0  0  0
    2.1651    2.0451   -1.6070 C   0  0  0  1  0  0  0  0  0  0  0  0
    2.5241    2.4437    0.7386 C   0  0  0  1  0  0  0  0  0  0  0  0
    4.3451    2.6505   -0.8092 C   0  0  0  1  0  0  0  0  0  0  0  0
    3.4965    2.3173   -1.8567 C   0  0  0  1  0  0  0  0  0  0  0  0
    3.8544    2.7157    0.4886 C   0  0  0  1  0  0  0  0  0  0  0  0
   -2.6216    0.6273   -0.2963 H   0  0  0  1  0  0  0  0  0  0  0  0
   -3.1663   -1.0664   -0.3513 H   0  0  0  1  0  0  0  0  0  0  0  0
   -2.3838   -3.3938   -0.0849 H   0  0  0  1  0  0  0  0  0  0  0  0
    2.5253   -3.1826   -0.6375 H   0  0  0  1  0  0  0  0  0  0  0  0
   -2.6816   -1.3009    2.0691 H   0  0  0  1  0  0  0  0  0  0  0  0
   -2.1368    0.3927    2.1242 H   0  0  0  1  0  0  0  0  0  0  0  0
   -3.8412    0.0169    1.7746 H   0  0  0  1  0  0  0  0  0  0  0  0
   -1.0749   -5.4533   -0.3779 H   0  0  0  1  0  0  0  0  0  0  0  0
    1.3662   -5.3467   -0.6533 H   0  0  0  1  0  0  0  0  0  0  0  0
    2.1429    2.4949    1.7478 H   0  0  0  1  0  0  0  0  0  0  0  0
    3.8772    2.2706   -2.8663 H   0  0  0  1  0  0  0  0  0  0  0  0
    4.5137    2.9792    1.3024 H   0  0  0  1  0  0  0  0  0  0  0  0
    6.0356    2.8839   -1.9687 H   0  0  0  1  0  0  0  0  0  0  0  0
    6.2865    3.1586   -0.3303 H   0  0  0  1  0  0  0  0  0  0  0  0
  1 16  1  0  0  0  0
  2  9  1  0  0  0  0
  2 15  1  0  0  0  0
  3  6  4  0  0  0  0
  3  7  1  0  0  0  0
  3  9  4  0  0  0  0
  4  8  4  0  0  0  0
  4  9  4  0  0  0  0
  5 18  1  0  0  0  0
  5 33  1  0  0  0  0
  5 34  1  0  0  0  0
  6  8  4  0  0  0  0
  6 10  4  0  0  0  0
  7 12  1  0  0  0  0
  7 21  1  0  0  0  0
  7 22  1  0  0  0  0
  8 11  4  0  0  0  0
 10 13  4  0  0  0  0
 10 23  1  0  0  0  0
 11 14  4  0  0  0  0
 11 24  1  0  0  0  0
 12 25  1  0  0  0  0
 12 26  1  0  0  0  0
 12 27  1  0  0  0  0
 13 14  4  0  0  0  0
 13 28  1  0  0  0  0
 14 29  1  0  0  0  0
 15 16  4  0  0  0  0
 15 17  4  0  0  0  0
 16 19  4  0  0  0  0
 17 20  4  0  0  0  0
 17 30  1  0  0  0  0
 18 19  4  0  0  0  0
 18 20  4  0  0  0  0
 19 31  1  0  0  0  0
 20 32  1  0  0  0  0
M  END
> <Activity>
0.01

> <Mapped(file=2032.csv.activities,property=Cached(PUBCHEM_COMPOUND_CID))>
100

> <MatchIndices>
152 

> <PUBCHEM_ATOM_DEF_STEREO_COUNT>
0

> <PUBCHEM_ATOM_UDEF_STEREO_COUNT>
0

> <PUBCHEM_BONDANNOTATIONS>
10  13  8
11  14  8
13  14  8
15  16  8
15  17  8
16  19  8
17  20  8
18  19  8
18  20  8
3  6  8
3  9  8
4  8  8
4  9  8
6  10  8
6  8  8
8  11  8

> <PUBCHEM_BOND_DEF_STEREO_COUNT>
0

> <PUBCHEM_BOND_UDEF_STEREO_COUNT>
0

> <PUBCHEM_CACTVS_COMPLEXITY>
330

> <PUBCHEM_CACTVS_HBOND_ACCEPTOR>
2

> <PUBCHEM_CACTVS_HBOND_DONOR>
1

> <PUBCHEM_CACTVS_ROTATABLE_BOND>
3

> <PUBCHEM_CACTVS_SUBSKEYS>
AAADccBzAABEAAAAAAAAAAAAAAAAAWAAAAAwYAAAAAAAAFgB9AAAHAYQAAAACArBViQz0bdMEAigASRiZACC0C1hH7AJ2Dg4dpiIaKLhm5GUIAhokALIyCcQAAAAAAQAAAIAAKAACAAABAABQAAAAAAAAA==

> <PUBCHEM_CACTVS_TAUTO_COUNT>
1

> <PUBCHEM_CACTVS_TPSA>
69.1

> <PUBCHEM_COMPONENT_COUNT>
1

> <PUBCHEM_COMPOUND_CANONICALIZED>
1

> <PUBCHEM_COMPOUND_CID>
973685

> <PUBCHEM_COORDINATE_TYPE>
1
5
255

> <PUBCHEM_EXACT_MASS>
303.059696

> <PUBCHEM_HEAVY_ATOM_COUNT>
20

> <PUBCHEM_ISOTOPIC_ATOM_COUNT>
0

> <PUBCHEM_IUPAC_CAS_NAME>
3-chloro-4-[(1-ethyl-2-benzimidazolyl)thio]aniline

> <PUBCHEM_IUPAC_INCHI>
InChI=1S/C15H14ClN3S/c1-2-19-13-6-4-3-5-12(13)18-15(19)20-14-8-7-10(17)9-11(14)16/h3-9H,2,17H2,1H3

> <PUBCHEM_IUPAC_INCHIKEY>
FDLVLPJOYWAMMU-UHFFFAOYSA-N

> <PUBCHEM_IUPAC_NAME>
3-chloro-4-(1-ethylbenzimidazol-2-yl)sulfanylaniline

> <PUBCHEM_IUPAC_OPENEYE_NAME>
3-chloro-4-(1-ethylbenzimidazol-2-yl)sulfanyl-aniline

> <PUBCHEM_IUPAC_SYSTEMATIC_NAME>
3-chloranyl-4-(1-ethylbenzimidazol-2-yl)sulfanyl-aniline

> <PUBCHEM_IUPAC_TRADITIONAL_NAME>
[3-chloro-4-[(1-ethylbenzimidazol-2-yl)thio]phenyl]amine

> <PUBCHEM_MOLECULAR_FORMULA>
C15H14ClN3S

> <PUBCHEM_MOLECULAR_WEIGHT>
303.80976

> <PUBCHEM_MONOISOTOPIC_WEIGHT>
303.059696

> <PUBCHEM_OPENEYE_CAN_SMILES>
CCN1C2=CC=CC=C2N=C1SC3=C(C=C(C=C3)N)Cl

> <PUBCHEM_OPENEYE_ISO_SMILES>
CCN1C2=CC=CC=C2N=C1SC3=C(C=C(C=C3)N)Cl

> <PUBCHEM_TOTAL_CHARGE>
0

> <PUBCHEM_XLOGP3_AA>
4.1

$$$$
Largest isolated from Written by BCL::WriteToMDL,2122091
JMcorina  04211410293D 1   1.00000     0.00000 
CORINA 3.49 0026  01.06.2011
 47 50  0  0  0  0  0  0  0  0999 V2000
   -0.0218    1.7561    0.0117 S   0  0  0  1  0  0  0  0  0  0  0  0
    6.2104   -3.0261    0.9857 O   0  0  0  1  0  0  0  0  0  0  0  0
    9.8696   -5.1122   -0.0361 O   0  0  0  1  0  0  0  0  0  0  0  0
    5.1589   -2.2157    2.7524 O   0  0  0  1  0  0  0  0  0  0  0  0
    2.3269   -0.0456    0.7217 N   0  0  0  1  0  0  0  0  0  0  0  0
    9.1336   -6.0717   -0.0339 N   0  0  0  1  0  0  0  0  0  0  0  0
    3.2775   -0.7737    1.5658 C   0  0  0  1  0  0  0  0  0  0  0  0
    1.1555   -0.7010    0.3497 C   0  0  0  1  0  0  0  0  0  0  0  0
    2.6566    1.2541    0.3464 C   0  0  0  1  0  0  0  0  0  0  0  0
    4.2666   -1.5346    0.6807 C   0  0  0  1  0  0  0  0  0  0  0  0
    0.0021   -0.0041    0.0020 C   0  0  0  1  0  0  0  0  0  0  0  0
    1.6849    2.1875   -0.0023 C   0  0  0  1  0  0  0  0  0  0  0  0
    1.1445   -2.0915    0.3280 C   0  0  0  1  0  0  0  0  0  0  0  0
    3.9970    1.6240    0.3216 C   0  0  0  1  0  0  0  0  0  0  0  0
    2.0585    3.4740   -0.3664 C   0  0  0  1  0  0  0  0  0  0  0  0
   -1.1450   -0.6980   -0.3583 C   0  0  0  1  0  0  0  0  0  0  0  0
    5.2445   -2.2836    1.5490 C   0  0  0  1  0  0  0  0  0  0  0  0
    4.3612    2.9064   -0.0430 C   0  0  0  1  0  0  0  0  0  0  0  0
   -0.0018   -2.7754   -0.0309 C   0  0  0  1  0  0  0  0  0  0  0  0
    3.3942    3.8315   -0.3864 C   0  0  0  1  0  0  0  0  0  0  0  0
   -1.1459   -2.0808   -0.3739 C   0  0  0  1  0  0  0  0  0  0  0  0
    7.1166   -3.7199    1.8833 C   0  0  0  1  0  0  0  0  0  0  0  0
    8.1258   -4.4961    1.0770 C   0  0  0  1  0  0  0  0  0  0  0  0
    9.3342   -4.0791    0.6292 C   0  0  0  1  0  0  0  0  0  0  0  0
    8.0310   -5.8285    0.6138 C   0  0  0  1  0  0  0  0  0  0  0  0
    9.9545   -2.7217    0.8382 C   0  0  0  1  0  0  0  0  0  0  0  0
    6.8809   -6.7787    0.8270 C   0  0  0  1  0  0  0  0  0  0  0  0
    3.8206   -0.0675    2.1938 H   0  0  0  1  0  0  0  0  0  0  0  0
    2.7368   -1.4795    2.1964 H   0  0  0  1  0  0  0  0  0  0  0  0
    3.7235   -2.2408    0.0527 H   0  0  0  1  0  0  0  0  0  0  0  0
    4.8073   -0.8289    0.0501 H   0  0  0  1  0  0  0  0  0  0  0  0
    2.0360   -2.6399    0.5943 H   0  0  0  1  0  0  0  0  0  0  0  0
    4.7576    0.9050    0.5882 H   0  0  0  1  0  0  0  0  0  0  0  0
   -2.0399   -0.1562   -0.6269 H   0  0  0  1  0  0  0  0  0  0  0  0
    1.3035    4.1979   -0.6354 H   0  0  0  1  0  0  0  0  0  0  0  0
   -0.0024   -3.8553   -0.0457 H   0  0  0  1  0  0  0  0  0  0  0  0
    5.4043    3.1860   -0.0594 H   0  0  0  1  0  0  0  0  0  0  0  0
    7.6336   -2.9937    2.5105 H   0  0  0  1  0  0  0  0  0  0  0  0
    6.5498   -4.4057    2.5131 H   0  0  0  1  0  0  0  0  0  0  0  0
   -2.0403   -2.6175   -0.6537 H   0  0  0  1  0  0  0  0  0  0  0  0
    3.6813    4.8331   -0.6705 H   0  0  0  1  0  0  0  0  0  0  0  0
   10.9325   -2.6913    0.3579 H   0  0  0  1  0  0  0  0  0  0  0  0
    9.3115   -1.9573    0.4019 H   0  0  0  1  0  0  0  0  0  0  0  0
   10.0682   -2.5347    1.9060 H   0  0  0  1  0  0  0  0  0  0  0  0
    7.0400   -7.3411    1.7471 H   0  0  0  1  0  0  0  0  0  0  0  0
    5.9519   -6.2135    0.9027 H   0  0  0  1  0  0  0  0  0  0  0  0
    6.8189   -7.4687   -0.0145 H   0  0  0  1  0  0  0  0  0  0  0  0
  1 11  1  0  0  0  0
  1 12  1  0  0  0  0
  2 17  1  0  0  0  0
  2 22  1  0  0  0  0
  3  6  4  0  0  0  0
  3 24  4  0  0  0  0
  4 17  2  0  0  0  0
  5  7  1  0  0  0  0
  5  8  1  0  0  0  0
  5  9  1  0  0  0  0
  6 25  4  0  0  0  0
  7 10  1  0  0  0  0
  7 28  1  0  0  0  0
  7 29  1  0  0  0  0
  8 11  4  0  0  0  0
  8 13  4  0  0  0  0
  9 12  4  0  0  0  0
  9 14  4  0  0  0  0
 10 17  1  0  0  0  0
 10 30  1  0  0  0  0
 10 31  1  0  0  0  0
 11 16  4  0  0  0  0
 12 15  4  0  0  0  0
 13 19  4  0  0  0  0
 13 32  1  0  0  0  0
 14 18  4  0  0  0  0
 14 33  1  0  0  0  0
 15 20  4  0  0  0  0
 15 35  1  0  0  0  0
 16 21  4  0  0  0  0
 16 34  1  0  0  0  0
 18 20  4  0  0  0  0
 18 37  1  0  0  0  0
 19 21  4  0  0  0  0
 19 36  1  0  0  0  0
 20 41  1  0  0  0  0
 21 40  1  0  0  0  0
 22 23  1  0  0  0  0
 22 38  1  0  0  0  0
 22 39  1  0  0  0  0
 23 24  4  0  0  0  0
 23 25  4  0  0  0  0
 24 26  1  0  0  0  0
 25 27  1  0  0  0  0
 26 42  1  0  0  0  0
 26 43  1  0  0  0  0
 26 44  1  0  0  0  0
 27 45  1  0  0  0  0
 27 46  1  0  0  0  0
 27 47  1  0  0  0  0
M  END
> <Activity>
0.01

> <Mapped(file=2032.csv.activities,property=Cached(PUBCHEM_COMPOUND_CID))>
100

> <MatchIndices>
184 

> <PUBCHEM_ATOM_DEF_STEREO_COUNT>
0

> <PUBCHEM_ATOM_UDEF_STEREO_COUNT>
0

> <PUBCHEM_BONDANNOTATIONS>
11  16  8
12  15  8
13  19  8
14  18  8
15  20  8
16  21  8
18  20  8
19  21  8
23  24  8
23  25  8
3  24  8
3  6  8
6  25  8
8  11  8
8  13  8
9  12  8
9  14  8

> <PUBCHEM_BOND_DEF_STEREO_COUNT>
0

> <PUBCHEM_BOND_UDEF_STEREO_COUNT>
0

> <PUBCHEM_CACTVS_COMPLEXITY>
498

> <PUBCHEM_CACTVS_HBOND_ACCEPTOR>
6

> <PUBCHEM_CACTVS_HBOND_DONOR>
0

> <PUBCHEM_CACTVS_ROTATABLE_BOND>
6

> <PUBCHEM_CACTVS_SUBSKEYS>
AAADceB7MABAAAAAAAAAAAAAAAAAAWAAAAA8YIAAAAAAAACx0AAAHgQEAAAADAzh3gYyzZMQBAipA6TySgCCAAAlKhAomD08bNoIJ37gsZuGMYhnoBjo6UcQAAAKAAAAAAAAAQAAAAAAAAACAAAAAAAAAA==

> <PUBCHEM_CACTVS_TAUTO_COUNT>
1

> <PUBCHEM_CACTVS_TPSA>
80.9

> <PUBCHEM_COMPONENT_COUNT>
1

> <PUBCHEM_COMPOUND_CANONICALIZED>
1

> <PUBCHEM_COMPOUND_CID>
2122091

> <PUBCHEM_COORDINATE_TYPE>
1
5
255

> <PUBCHEM_EXACT_MASS>
380.119464

> <PUBCHEM_HEAVY_ATOM_COUNT>
27

> <PUBCHEM_ISOTOPIC_ATOM_COUNT>
0

> <PUBCHEM_IUPAC_CAS_NAME>
3-(10-phenothiazinyl)propanoic acid (3,5-dimethyl-4-isoxazolyl)methyl ester

> <PUBCHEM_IUPAC_INCHI>
InChI=1S/C21H20N2O3S/c1-14-16(15(2)26-22-14)13-25-21(24)11-12-23-17-7-3-5-9-19(17)27-20-10-6-4-8-18(20)23/h3-10H,11-13H2,1-2H3

> <PUBCHEM_IUPAC_INCHIKEY>
BHUNAONCKHLKJX-UHFFFAOYSA-N

> <PUBCHEM_IUPAC_NAME>
(3,5-dimethyl-1,2-oxazol-4-yl)methyl 3-phenothiazin-10-ylpropanoate

> <PUBCHEM_IUPAC_OPENEYE_NAME>
(3,5-dimethylisoxazol-4-yl)methyl 3-phenothiazin-10-ylpropanoate

> <PUBCHEM_IUPAC_SYSTEMATIC_NAME>
(3,5-dimethyl-1,2-oxazol-4-yl)methyl 3-phenothiazin-10-ylpropanoate

> <PUBCHEM_IUPAC_TRADITIONAL_NAME>
3-phenothiazin-10-ylpropionic acid (3,5-dimethylisoxazol-4-yl)methyl ester

> <PUBCHEM_MOLECULAR_FORMULA>
C21H20N2O3S

> <PUBCHEM_MOLECULAR_WEIGHT>
380.4601

> <PUBCHEM_MONOISOTOPIC_WEIGHT>
380.119464

> <PUBCHEM_OPENEYE_CAN_SMILES>
CC1=C(C(=NO1)C)COC(=O)CCN2C3=CC=CC=C3SC4=CC=CC=C42

> <PUBCHEM_OPENEYE_ISO_SMILES>
CC1=C(C(=NO1)C)COC(=O)CCN2C3=CC=CC=C3SC4=CC=CC=C42

> <PUBCHEM_TOTAL_CHARGE>
0

> <PUBCHEM_XLOGP3_AA>
4.3

$$$$
Largest isolated from Written by BCL::WriteToMDL,1263189
JMcorina  04211410293D 1   1.00000     0.00000 
CORINA 3.49 0026  01.06.2011
 37 38  0  0  0  0  0  0  0  0999 V2000
    0.0465    1.4265   -0.0693 S   0  0  0  1  0  0  0  0  0  0  0  0
    3.9019    2.8020   -1.2371 S   0  0  0  1  0  0  0  0  0  0  0  0
   -0.4706    1.9584    1.1426 O   0  0  0  1  0  0  0  0  0  0  0  0
    0.2033    0.0335   -0.3023 O   0  0  0  1  0  0  0  0  0  0  0  0
   -2.0312    7.4026   -1.6280 O   0  0  0  1  0  0  0  0  0  0  0  0
   -0.9253    1.9971   -1.2827 N   0  0  0  1  0  0  0  0  0  0  0  0
    1.6376    2.1502   -0.2914 C   0  0  0  1  0  0  0  0  0  0  0  0
   -1.2050    3.3654   -1.3701 C   0  0  0  1  0  0  0  0  0  0  0  0
    2.3907    1.9115   -1.3662 C   0  0  0  1  0  0  0  0  0  0  0  0
    2.2009    3.0093    0.6364 C   0  0  0  1  0  0  0  0  0  0  0  0
   -1.8418    5.4252   -0.3193 C   0  0  0  1  0  0  0  0  0  0  0  0
   -1.4036    5.3640   -2.6810 C   0  0  0  1  0  0  0  0  0  0  0  0
   -1.1274    4.0135   -2.5957 C   0  0  0  1  0  0  0  0  0  0  0  0
   -1.5659    4.0748   -0.2322 C   0  0  0  1  0  0  0  0  0  0  0  0
    3.4115    3.4681    0.3151 C   0  0  0  1  0  0  0  0  0  0  0  0
   -1.7589    6.0729   -1.5430 C   0  0  0  1  0  0  0  0  0  0  0  0
    2.0054    1.0161   -2.5155 C   0  0  0  1  0  0  0  0  0  0  0  0
   -2.2335    6.1953    0.9155 C   0  0  0  1  0  0  0  0  0  0  0  0
   -1.3195    6.0675   -4.0111 C   0  0  0  1  0  0  0  0  0  0  0  0
    4.2334    4.4125    1.1540 C   0  0  0  1  0  0  0  0  0  0  0  0
   -1.3006    1.3828   -1.9329 H   0  0  0  1  0  0  0  0  0  0  0  0
    1.6982    3.2872    1.5510 H   0  0  0  1  0  0  0  0  0  0  0  0
   -0.8508    3.4617   -3.4820 H   0  0  0  1  0  0  0  0  0  0  0  0
   -1.6312    3.5705    0.7206 H   0  0  0  1  0  0  0  0  0  0  0  0
    2.7643    1.0791   -3.2954 H   0  0  0  1  0  0  0  0  0  0  0  0
    1.9295   -0.0131   -2.1647 H   0  0  0  1  0  0  0  0  0  0  0  0
    1.0438    1.3348   -2.9178 H   0  0  0  1  0  0  0  0  0  0  0  0
   -1.3516    6.6763    1.3386 H   0  0  0  1  0  0  0  0  0  0  0  0
   -2.9701    6.9542    0.6520 H   0  0  0  1  0  0  0  0  0  0  0  0
   -2.6619    5.5122    1.6490 H   0  0  0  1  0  0  0  0  0  0  0  0
   -2.2890    6.0236   -4.5073 H   0  0  0  1  0  0  0  0  0  0  0  0
   -1.0385    7.1089   -3.8541 H   0  0  0  1  0  0  0  0  0  0  0  0
   -0.5701    5.5789   -4.6338 H   0  0  0  1  0  0  0  0  0  0  0  0
    5.1775    4.6185    0.6497 H   0  0  0  1  0  0  0  0  0  0  0  0
    3.6856    5.3443    1.2945 H   0  0  0  1  0  0  0  0  0  0  0  0
    4.4316    3.9576    2.1245 H   0  0  0  1  0  0  0  0  0  0  0  0
   -1.2599    7.9711   -1.4977 H   0  0  0  1  0  0  0  0  0  0  0  0
  1  3  2  0  0  0  0
  1  4  2  0  0  0  0
  1  6  1  0  0  0  0
  1  7  1  0  0  0  0
  2  9  4  0  0  0  0
  2 15  4  0  0  0  0
  5 16  1  0  0  0  0
  5 37  1  0  0  0  0
  6  8  1  0  0  0  0
  6 21  1  0  0  0  0
  7  9  4  0  0  0  0
  7 10  4  0  0  0  0
  8 13  4  0  0  0  0
  8 14  4  0  0  0  0
  9 17  1  0  0  0  0
 10 15  4  0  0  0  0
 10 22  1  0  0  0  0
 11 14  4  0  0  0  0
 11 16  4  0  0  0  0
 11 18  1  0  0  0  0
 12 13  4  0  0  0  0
 12 16  4  0  0  0  0
 12 19  1  0  0  0  0
 13 23  1  0  0  0  0
 14 24  1  0  0  0  0
 15 20  1  0  0  0  0
 17 25  1  0  0  0  0
 17 26  1  0  0  0  0
 17 27  1  0  0  0  0
 18 28  1  0  0  0  0
 18 29  1  0  0  0  0
 18 30  1  0  0  0  0
 19 31  1  0  0  0  0
 19 32  1  0  0  0  0
 19 33  1  0  0  0  0
 20 34  1  0  0  0  0
 20 35  1  0  0  0  0
 20 36  1  0  0  0  0
M  END
> <Activity>
0.01

> <Mapped(file=2032.csv.activities,property=Cached(PUBCHEM_COMPOUND_CID))>
100

> <MatchIndices>
160 

> <PUBCHEM_ATOM_DEF_STEREO_COUNT>
0

> <PUBCHEM_ATOM_UDEF_STEREO_COUNT>
0

> <PUBCHEM_BONDANNOTATIONS>
10  15  8
11  14  8
11  16  8
12  13  8
12  16  8
2  15  8
2  9  8
7  10  8
7  9  8
8  13  8
8  14  8

> <PUBCHEM_BOND_DEF_STEREO_COUNT>
0

> <PUBCHEM_BOND_UDEF_STEREO_COUNT>
0

> <PUBCHEM_CACTVS_COMPLEXITY>
422

> <PUBCHEM_CACTVS_HBOND_ACCEPTOR>
5

> <PUBCHEM_CACTVS_HBOND_DONOR>
2

> <PUBCHEM_CACTVS_ROTATABLE_BOND>
3

> <PUBCHEM_CACTVS_SUBSKEYS>
AAADceByMABgAAAAAAAAAAAAAAAAASAAAAAwAAAAAAAAAAABwAAAHgQQSAAADAyB2AAyx4BAAgqEAiRCQHDDAJAgKhBAiBgEbIgIJiKikZOAcABk0BEo2AewwGAOAEACQAAIAAAAgASAABAAAAAAAAAAAA==

> <PUBCHEM_CACTVS_TAUTO_COUNT>
2

> <PUBCHEM_CACTVS_TPSA>
103

> <PUBCHEM_COMPONENT_COUNT>
1

> <PUBCHEM_COMPOUND_CANONICALIZED>
1

> <PUBCHEM_COMPOUND_CID>
1263189

> <PUBCHEM_COORDINATE_TYPE>
1
5
255

> <PUBCHEM_EXACT_MASS>
311.064985

> <PUBCHEM_HEAVY_ATOM_COUNT>
20

> <PUBCHEM_ISOTOPIC_ATOM_COUNT>
0

> <PUBCHEM_IUPAC_CAS_NAME>
N-(4-hydroxy-3,5-dimethylphenyl)-2,5-dimethyl-3-thiophenesulfonamide

> <PUBCHEM_IUPAC_INCHI>
InChI=1S/C14H17NO3S2/c1-8-5-12(6-9(2)14(8)16)15-20(17,18)13-7-10(3)19-11(13)4/h5-7,15-16H,1-4H3

> <PUBCHEM_IUPAC_INCHIKEY>
IWORMWOSTFKLJS-UHFFFAOYSA-N

> <PUBCHEM_IUPAC_NAME>
N-(4-hydroxy-3,5-dimethylphenyl)-2,5-dimethylthiophene-3-sulfonamide

> <PUBCHEM_IUPAC_OPENEYE_NAME>
N-(4-hydroxy-3,5-dimethyl-phenyl)-2,5-dimethyl-thiophene-3-sulfonamide

> <PUBCHEM_IUPAC_SYSTEMATIC_NAME>
N-(3,5-dimethyl-4-oxidanyl-phenyl)-2,5-dimethyl-thiophene-3-sulfonamide

> <PUBCHEM_IUPAC_TRADITIONAL_NAME>
N-(4-hydroxy-3,5-dimethyl-phenyl)-2,5-dimethyl-thiophene-3-sulfonamide

> <PUBCHEM_MOLECULAR_FORMULA>
C14H17NO3S2

> <PUBCHEM_MOLECULAR_WEIGHT>
311.41968

> <PUBCHEM_MONOISOTOPIC_WEIGHT>
311.064985

> <PUBCHEM_OPENEYE_CAN_SMILES>
CC1=CC(=CC(=C1O)C)NS(=O)(=O)C2=C(SC(=C2)C)C

> <PUBCHEM_OPENEYE_ISO_SMILES>
CC1=CC(=CC(=C1O)C)NS(=O)(=O)C2=C(SC(=C2)C)C

> <PUBCHEM_TOTAL_CHARGE>
0

> <PUBCHEM_XLOGP3_AA>
3.3

$$$$
Largest isolated from Written by BCL::WriteToMDL,6602960
JMcorina  04211410293D 1   1.00000     0.00000 
CORINA 3.49 0026  01.06.2011
 44 47  0  0  0  0  0  0  0  0999 V2000
    6.7315   18.4771    8.3400 O   0  0  0  1  0  0  0  0  0  0  0  0
    9.1036    8.9586    7.0360 N   0  0  0  1  0  0  0  0  0  0  0  0
    8.0062   11.0273    7.2428 N   0  0  0  1  0  0  0  0  0  0  0  0
    9.1320   13.0597    7.3528 N   0  0  0  1  0  0  0  0  0  0  0  0
    6.8094   13.0210    7.4481 N   0  0  0  1  0  0  0  0  0  0  0  0
    7.2761    7.4924    7.6794 C   0  0  0  1  0  0  0  0  0  0  0  0
    7.6873    7.2069    6.2109 C   0  0  0  1  0  0  0  0  0  0  0  0
    8.4446    8.3513    8.2068 C   0  0  0  1  0  0  0  0  0  0  0  0
    8.3827    8.5339    5.8171 C   0  0  0  1  0  0  0  0  0  0  0  0
    9.1295   10.3327    7.1411 C   0  0  0  1  0  0  0  0  0  0  0  0
   10.3590   11.0386    7.1436 C   0  0  0  1  0  0  0  0  0  0  0  0
   10.3228   12.4500    7.2548 C   0  0  0  1  0  0  0  0  0  0  0  0
   11.5902   10.3836    7.0399 C   0  0  0  1  0  0  0  0  0  0  0  0
    8.0175   12.3537    7.3454 C   0  0  0  1  0  0  0  0  0  0  0  0
   11.5255   13.1687    7.2590 C   0  0  0  1  0  0  0  0  0  0  0  0
   12.7431   11.1136    7.0471 C   0  0  0  1  0  0  0  0  0  0  0  0
   12.7098   12.5003    7.1562 C   0  0  0  1  0  0  0  0  0  0  0  0
    6.7897   14.4029    7.6739 C   0  0  0  1  0  0  0  0  0  0  0  0
    5.7936   15.1856    7.1052 C   0  0  0  1  0  0  0  0  0  0  0  0
    7.7633   14.9905    8.4709 C   0  0  0  1  0  0  0  0  0  0  0  0
    5.7747   16.5482    7.3288 C   0  0  0  1  0  0  0  0  0  0  0  0
    7.7429   16.3532    8.6935 C   0  0  0  1  0  0  0  0  0  0  0  0
    6.7506   17.1352    8.1207 C   0  0  0  1  0  0  0  0  0  0  0  0
    7.7669   19.0144    9.1654 C   0  0  0  1  0  0  0  0  0  0  0  0
    8.3834    6.3700    6.1560 H   0  0  0  1  0  0  0  0  0  0  0  0
    6.8111    7.0255    5.5884 H   0  0  0  1  0  0  0  0  0  0  0  0
    6.3404    8.0503    7.7161 H   0  0  0  1  0  0  0  0  0  0  0  0
    7.1948    6.5637    8.2443 H   0  0  0  1  0  0  0  0  0  0  0  0
    7.6414    9.2815    5.5348 H   0  0  0  1  0  0  0  0  0  0  0  0
    9.0844    8.3667    5.0000 H   0  0  0  1  0  0  0  0  0  0  0  0
    9.1529    7.7227    8.7464 H   0  0  0  1  0  0  0  0  0  0  0  0
    8.0632    9.1326    8.8643 H   0  0  0  1  0  0  0  0  0  0  0  0
   11.6284    9.3076    6.9551 H   0  0  0  1  0  0  0  0  0  0  0  0
   11.5148   14.2454    7.3427 H   0  0  0  1  0  0  0  0  0  0  0  0
   13.6942   10.6082    6.9670 H   0  0  0  1  0  0  0  0  0  0  0  0
    5.9762   12.5314    7.3637 H   0  0  0  1  0  0  0  0  0  0  0  0
   13.6360   13.0559    7.1593 H   0  0  0  1  0  0  0  0  0  0  0  0
    5.0339   14.7288    6.4883 H   0  0  0  1  0  0  0  0  0  0  0  0
    8.5357   14.3818    8.9172 H   0  0  0  1  0  0  0  0  0  0  0  0
    5.0000   17.1571    6.8866 H   0  0  0  1  0  0  0  0  0  0  0  0
    8.5000   16.8104    9.3133 H   0  0  0  1  0  0  0  0  0  0  0  0
    7.7192   18.5555   10.1530 H   0  0  0  1  0  0  0  0  0  0  0  0
    8.7367   18.8051    8.7141 H   0  0  0  1  0  0  0  0  0  0  0  0
    7.6346   20.0923    9.2588 H   0  0  0  1  0  0  0  0  0  0  0  0
  1 23  1  0  0  0  0
  1 24  1  0  0  0  0
  2  8  1  0  0  0  0
  2  9  1  0  0  0  0
  2 10  1  0  0  0  0
  3 10  4  0  0  0  0
  3 14  4  0  0  0  0
  4 12  4  0  0  0  0
  4 14  4  0  0  0  0
  5 14  1  0  0  0  0
  5 18  1  0  0  0  0
  5 36  1  0  0  0  0
  6  7  1  0  0  0  0
  6  8  1  0  0  0  0
  6 27  1  0  0  0  0
  6 28  1  0  0  0  0
  7  9  1  0  0  0  0
  7 25  1  0  0  0  0
  7 26  1  0  0  0  0
  8 31  1  0  0  0  0
  8 32  1  0  0  0  0
  9 29  1  0  0  0  0
  9 30  1  0  0  0  0
 10 11  4  0  0  0  0
 11 12  4  0  0  0  0
 11 13  4  0  0  0  0
 12 15  4  0  0  0  0
 13 16  4  0  0  0  0
 13 33  1  0  0  0  0
 15 17  4  0  0  0  0
 15 34  1  0  0  0  0
 16 17  4  0  0  0  0
 16 35  1  0  0  0  0
 17 37  1  0  0  0  0
 18 19  4  0  0  0  0
 18 20  4  0  0  0  0
 19 21  4  0  0  0  0
 19 38  1  0  0  0  0
 20 22  4  0  0  0  0
 20 39  1  0  0  0  0
 21 23  4  0  0  0  0
 21 40  1  0  0  0  0
 22 23  4  0  0  0  0
 22 41  1  0  0  0  0
 24 42  1  0  0  0  0
 24 43  1  0  0  0  0
 24 44  1  0  0  0  0
M  END
> <Activity>
0.01

> <Mapped(file=2032.csv.activities,property=Cached(PUBCHEM_COMPOUND_CID))>
100

> <MatchIndices>
67 

> <PUBCHEM_ATOM_DEF_STEREO_COUNT>
0

> <PUBCHEM_ATOM_UDEF_STEREO_COUNT>
0

> <PUBCHEM_BONDANNOTATIONS>
11  12  8
12  13  8
12  14  8
13  16  8
14  17  8
16  18  8
17  18  8
19  20  8
19  21  8
20  22  8
21  23  8
22  24  8
23  24  8
4  11  8
4  15  8
5  13  8
5  15  8

> <PUBCHEM_BOND_DEF_STEREO_COUNT>
0

> <PUBCHEM_BOND_UDEF_STEREO_COUNT>
0

> <PUBCHEM_CACTVS_COMPLEXITY>
393

> <PUBCHEM_CACTVS_HBOND_ACCEPTOR>
1

> <PUBCHEM_CACTVS_HBOND_DONOR>
2

> <PUBCHEM_CACTVS_ROTATABLE_BOND>
4

> <PUBCHEM_CACTVS_SUBSKEYS>
AAADceB7oAAEAAAAAAAAAAAAAAAAAWAAAAA8YIAAAAAAAACx9AAAHgAQAAAADAzBngYz9vfIFACgAyZiZACCiCkhIqAJmCA+bJiMLqLE+duENChs0BPI6CewwAAOAEAAAAACAAAAgAAAAAQAAAAAAAAAAA==

> <PUBCHEM_CACTVS_TAUTO_COUNT>
4

> <PUBCHEM_CACTVS_TPSA>
50.3

> <PUBCHEM_COMPONENT_COUNT>
2

> <PUBCHEM_COMPOUND_CANONICALIZED>
1

> <PUBCHEM_COMPOUND_CID>
6602960

> <PUBCHEM_COORDINATE_TYPE>
1
5
255

> <PUBCHEM_EXACT_MASS>
356.140389

> <PUBCHEM_HEAVY_ATOM_COUNT>
25

> <PUBCHEM_ISOTOPIC_ATOM_COUNT>
0

> <PUBCHEM_IUPAC_CAS_NAME>
N-(4-methoxyphenyl)-4-(1-pyrrolidinyl)-2-quinazolinamine hydrochloride

> <PUBCHEM_IUPAC_INCHI>
InChI=1S/C19H20N4O.ClH/c1-24-15-10-8-14(9-11-15)20-19-21-17-7-3-2-6-16(17)18(22-19)23-12-4-5-13-23;/h2-3,6-11H,4-5,12-13H2,1H3,(H,20,21,22);1H

> <PUBCHEM_IUPAC_INCHIKEY>
SQNXCAUHFCLHTK-UHFFFAOYSA-N

> <PUBCHEM_IUPAC_NAME>
N-(4-methoxyphenyl)-4-pyrrolidin-1-ylquinazolin-2-amine hydrochloride

> <PUBCHEM_IUPAC_OPENEYE_NAME>
N-(4-methoxyphenyl)-4-pyrrolidin-1-yl-quinazolin-2-amine hydrochloride

> <PUBCHEM_IUPAC_SYSTEMATIC_NAME>
N-(4-methoxyphenyl)-4-pyrrolidin-1-yl-quinazolin-2-amine hydrochloride

> <PUBCHEM_IUPAC_TRADITIONAL_NAME>
(4-methoxyphenyl)-(4-pyrrolidinoquinazolin-2-yl)amine hydrochloride

> <PUBCHEM_MOLECULAR_FORMULA>
C19H21ClN4O

> <PUBCHEM_MOLECULAR_WEIGHT>
356.84924

> <PUBCHEM_MONOISOTOPIC_WEIGHT>
356.140389

> <PUBCHEM_OPENEYE_CAN_SMILES>
COC1=CC=C(C=C1)NC2=NC3=CC=CC=C3C(=N2)N4CCCC4.Cl

> <PUBCHEM_OPENEYE_ISO_SMILES>
COC1=CC=C(C=C1)NC2=NC3=CC=CC=C3C(=N2)N4CCCC4.Cl

> <PUBCHEM_TOTAL_CHARGE>
0

$$$$
Largest isolated from Written by BCL::WriteToMDL,2984278
JMcorina  04211410293D 1   1.00000     0.00000 
CORINA 3.49 0026  01.06.2011
 38 39  0  0  0  0  0  0  0  0999 V2000
    7.1127   20.1667    8.5745 S   0  0  0  1  0  0  0  0  0  0  0  0
    6.0196   12.2004    5.0000 O   0  0  0  1  0  0  0  0  0  0  0  0
    7.1877   13.6494    7.1525 N   0  0  0  1  0  0  0  0  0  0  0  0
    7.1994   11.7184    5.6465 C   0  0  0  1  0  0  0  0  0  0  0  0
    7.2072   12.1813    7.1047 C   0  0  0  1  0  0  0  0  0  0  0  0
    7.1945   14.1311    8.5403 C   0  0  0  1  0  0  0  0  0  0  0  0
    7.2194   10.2123    5.5974 C   0  0  0  1  0  0  0  0  0  0  0  0
    7.1741   15.6380    8.5491 C   0  0  0  1  0  0  0  0  0  0  0  0
    8.4200    9.5412    5.4591 C   0  0  0  1  0  0  0  0  0  0  0  0
    6.0378    9.5018    5.6965 C   0  0  0  1  0  0  0  0  0  0  0  0
    5.9662   16.3114    8.5647 C   0  0  0  1  0  0  0  0  0  0  0  0
    8.3633   16.3440    8.5477 C   0  0  0  1  0  0  0  0  0  0  0  0
    8.4383    8.1597    5.4141 C   0  0  0  1  0  0  0  0  0  0  0  0
    6.0561    8.1203    5.6515 C   0  0  0  1  0  0  0  0  0  0  0  0
    5.9436   17.6920    8.5724 C   0  0  0  1  0  0  0  0  0  0  0  0
    8.3485   17.7247    8.5553 C   0  0  0  1  0  0  0  0  0  0  0  0
    7.1366   18.4049    8.5648 C   0  0  0  1  0  0  0  0  0  0  0  0
    7.2562    7.4493    5.5079 C   0  0  0  1  0  0  0  0  0  0  0  0
    8.8744   20.5987    8.5600 C   0  0  0  1  0  0  0  0  0  0  0  0
    8.0792   12.1103    5.1361 H   0  0  0  1  0  0  0  0  0  0  0  0
    8.1071   11.8137    7.5978 H   0  0  0  1  0  0  0  0  0  0  0  0
    6.3274   11.7895    7.6150 H   0  0  0  1  0  0  0  0  0  0  0  0
    6.3146   13.7528    9.0605 H   0  0  0  1  0  0  0  0  0  0  0  0
    8.0943   13.7770    9.0433 H   0  0  0  1  0  0  0  0  0  0  0  0
    7.9588   14.0385    6.6309 H   0  0  0  1  0  0  0  0  0  0  0  0
    9.3436   10.0962    5.3859 H   0  0  0  1  0  0  0  0  0  0  0  0
    5.1003   10.0260    5.8093 H   0  0  0  1  0  0  0  0  0  0  0  0
    5.0395   15.7568    8.5702 H   0  0  0  1  0  0  0  0  0  0  0  0
    9.3048   15.8148    8.5400 H   0  0  0  1  0  0  0  0  0  0  0  0
    5.1964   11.8908    5.4021 H   0  0  0  1  0  0  0  0  0  0  0  0
    9.3762    7.6354    5.3054 H   0  0  0  1  0  0  0  0  0  0  0  0
    5.1330    7.5652    5.7292 H   0  0  0  1  0  0  0  0  0  0  0  0
    5.0000   18.2172    8.5839 H   0  0  0  1  0  0  0  0  0  0  0  0
    9.2776   18.2754    8.5543 H   0  0  0  1  0  0  0  0  0  0  0  0
    7.2705    6.3700    5.4724 H   0  0  0  1  0  0  0  0  0  0  0  0
    8.9826   21.6834    8.5648 H   0  0  0  1  0  0  0  0  0  0  0  0
    9.3581   20.1815    9.4432 H   0  0  0  1  0  0  0  0  0  0  0  0
    9.3411   20.1910    7.6633 H   0  0  0  1  0  0  0  0  0  0  0  0
  1 17  1  0  0  0  0
  1 19  1  0  0  0  0
  2  4  1  0  0  0  0
  2 30  1  0  0  0  0
  3  5  1  0  0  0  0
  3  6  1  0  0  0  0
  3 25  1  0  0  0  0
  4  5  1  0  0  0  0
  4  7  1  0  0  0  0
  4 20  1  0  0  0  0
  5 21  1  0  0  0  0
  5 22  1  0  0  0  0
  6  8  1  0  0  0  0
  6 23  1  0  0  0  0
  6 24  1  0  0  0  0
  7  9  4  0  0  0  0
  7 10  4  0  0  0  0
  8 11  4  0  0  0  0
  8 12  4  0  0  0  0
  9 13  4  0  0  0  0
  9 26  1  0  0  0  0
 10 14  4  0  0  0  0
 10 27  1  0  0  0  0
 11 15  4  0  0  0  0
 11 28  1  0  0  0  0
 12 16  4  0  0  0  0
 12 29  1  0  0  0  0
 13 18  4  0  0  0  0
 13 31  1  0  0  0  0
 14 18  4  0  0  0  0
 14 32  1  0  0  0  0
 15 17  4  0  0  0  0
 15 33  1  0  0  0  0
 16 17  4  0  0  0  0
 16 34  1  0  0  0  0
 18 35  1  0  0  0  0
 19 36  1  0  0  0  0
 19 37  1  0  0  0  0
 19 38  1  0  0  0  0
M  END
> <Activity>
0.01

> <Mapped(file=2032.csv.activities,property=Cached(PUBCHEM_COMPOUND_CID))>
100

> <MatchIndices>
48 

> <PUBCHEM_ATOM_DEF_STEREO_COUNT>
0

> <PUBCHEM_ATOM_UDEF_STEREO_COUNT>
1

> <PUBCHEM_BONDANNOTATIONS>
10  14  8
11  15  8
12  16  8
13  17  8
14  19  8
15  19  8
16  18  8
17  18  8
5  21  3
8  10  8
8  11  8
9  12  8
9  13  8

> <PUBCHEM_BOND_DEF_STEREO_COUNT>
0

> <PUBCHEM_BOND_UDEF_STEREO_COUNT>
0

> <PUBCHEM_CACTVS_COMPLEXITY>
235

> <PUBCHEM_CACTVS_HBOND_ACCEPTOR>
3

> <PUBCHEM_CACTVS_HBOND_DONOR>
3

> <PUBCHEM_CACTVS_ROTATABLE_BOND>
6

> <PUBCHEM_CACTVS_SUBSKEYS>
AAADceB6IABEAAAAAAAAAAAAAAAAAAAAAAAwYAAAAAAAAAABQAAAHgQQCAAADBTh2AayAYLAAgiAAiBCAACCAAAgCBAIiJgIDIgKNiKgkRGEcAhk0AGYmAeQwKAOEAAAAAAAAAAgAAAAAAAAAAAAAAAAAA==

> <PUBCHEM_CACTVS_TAUTO_COUNT>
1

> <PUBCHEM_CACTVS_TPSA>
57.6

> <PUBCHEM_COMPONENT_COUNT>
2

> <PUBCHEM_COMPOUND_CANONICALIZED>
1

> <PUBCHEM_COMPOUND_CID>
2984278

> <PUBCHEM_COORDINATE_TYPE>
1
5
255

> <PUBCHEM_EXACT_MASS>
309.095413

> <PUBCHEM_HEAVY_ATOM_COUNT>
20

> <PUBCHEM_ISOTOPIC_ATOM_COUNT>
0

> <PUBCHEM_IUPAC_CAS_NAME>
2-[[4-(methylthio)phenyl]methylamino]-1-phenylethanol hydrochloride

> <PUBCHEM_IUPAC_INCHI>
InChI=1S/C16H19NOS.ClH/c1-19-15-9-7-13(8-10-15)11-17-12-16(18)14-5-3-2-4-6-14;/h2-10,16-18H,11-12H2,1H3;1H

> <PUBCHEM_IUPAC_INCHIKEY>
LIANISOVSMTUFG-UHFFFAOYSA-N

> <PUBCHEM_IUPAC_NAME>
2-[(4-methylsulfanylphenyl)methylamino]-1-phenylethanol hydrochloride

> <PUBCHEM_IUPAC_OPENEYE_NAME>
2-[(4-methylsulfanylphenyl)methylamino]-1-phenyl-ethanol hydrochloride

> <PUBCHEM_IUPAC_SYSTEMATIC_NAME>
2-[(4-methylsulfanylphenyl)methylamino]-1-phenyl-ethanol hydrochloride

> <PUBCHEM_IUPAC_TRADITIONAL_NAME>
2-[[4-(methylthio)benzyl]amino]-1-phenyl-ethanol hydrochloride

> <PUBCHEM_MOLECULAR_FORMULA>
C16H20ClNOS

> <PUBCHEM_MOLECULAR_WEIGHT>
309.8541

> <PUBCHEM_MONOISOTOPIC_WEIGHT>
309.095413

> <PUBCHEM_OPENEYE_CAN_SMILES>
CSC1=CC=C(C=C1)CNCC(C2=CC=CC=C2)O.Cl

> <PUBCHEM_OPENEYE_ISO_SMILES>
CSC1=CC=C(C=C1)CNCC(C2=CC=CC=C2)O.Cl

> <PUBCHEM_TOTAL_CHARGE>
0

$$$$
Largest isolated from Written by BCL::WriteToMDL,4009407
JMcorina  04211410293D 1   1.00000     0.00000 
CORINA 3.49 0026  01.06.2011
 47 48  0  0  0  0  0  0  0  0999 V2000
    2.1985    1.5584   -0.0106 O   0  0  0  1  0  0  0  0  0  0  0  0
   -0.0178    1.4608    0.0101 N   0  0  0  1  0  0  0  0  0  0  0  0
    0.0021   -0.0041    0.0020 C   0  0  0  1  0  0  0  0  0  0  0  0
   -1.2924   -0.5351    0.6212 C   0  0  0  1  0  0  0  0  0  0  0  0
    2.5551    4.1869    0.0001 C   0  0  0  1  0  0  0  0  0  0  0  0
    1.1197    3.6573    0.0110 C   0  0  0  1  0  0  0  0  0  0  0  0
   -1.3512   -0.1392    2.0979 C   0  0  0  1  0  0  0  0  0  0  0  0
    1.1401    2.1505    0.0027 C   0  0  0  1  0  0  0  0  0  0  0  0
    0.1210   -0.5046   -1.4389 C   0  0  0  1  0  0  0  0  0  0  0  0
    2.5353    5.6893   -0.1154 C   0  0  0  1  0  0  0  0  0  0  0  0
    3.2570    3.7845    1.2987 C   0  0  0  1  0  0  0  0  0  0  0  0
   -2.6262   -0.6622    2.7078 C   0  0  0  1  0  0  0  0  0  0  0  0
    3.1461    6.3079   -1.1902 C   0  0  0  1  0  0  0  0  0  0  0  0
    1.9016    6.4486    0.8504 C   0  0  0  1  0  0  0  0  0  0  0  0
   -2.6526   -1.9192    3.2824 C   0  0  0  1  0  0  0  0  0  0  0  0
   -3.7678    0.1172    2.6976 C   0  0  0  1  0  0  0  0  0  0  0  0
    3.1280    7.6861   -1.2962 C   0  0  0  1  0  0  0  0  0  0  0  0
    1.8834    7.8267    0.7444 C   0  0  0  1  0  0  0  0  0  0  0  0
    2.4988    8.4456   -0.3277 C   0  0  0  1  0  0  0  0  0  0  0  0
   -3.8221   -2.3990    3.8418 C   0  0  0  1  0  0  0  0  0  0  0  0
   -4.9373   -0.3625    3.2570 C   0  0  0  1  0  0  0  0  0  0  0  0
   -4.9651   -1.6216    3.8269 C   0  0  0  1  0  0  0  0  0  0  0  0
    0.8543   -0.3591    0.5815 H   0  0  0  1  0  0  0  0  0  0  0  0
   -2.1475   -0.1091    0.0965 H   0  0  0  1  0  0  0  0  0  0  0  0
   -1.3174   -1.6214    0.5350 H   0  0  0  1  0  0  0  0  0  0  0  0
    3.0919    3.7642   -0.8491 H   0  0  0  1  0  0  0  0  0  0  0  0
    0.6095    4.0088    0.9078 H   0  0  0  1  0  0  0  0  0  0  0  0
    0.5925    4.0184   -0.8721 H   0  0  0  1  0  0  0  0  0  0  0  0
   -0.4960   -0.5652    2.6226 H   0  0  0  1  0  0  0  0  0  0  0  0
   -1.3261    0.9471    2.1841 H   0  0  0  1  0  0  0  0  0  0  0  0
   -0.8643    1.9343    0.0167 H   0  0  0  1  0  0  0  0  0  0  0  0
   -0.7313   -0.1496   -2.0183 H   0  0  0  1  0  0  0  0  0  0  0  0
    1.0432   -0.1263   -1.8800 H   0  0  0  1  0  0  0  0  0  0  0  0
    0.1358   -1.5945   -1.4449 H   0  0  0  1  0  0  0  0  0  0  0  0
    2.7202    4.2072    2.1480 H   0  0  0  1  0  0  0  0  0  0  0  0
    3.2713    2.6978    1.3823 H   0  0  0  1  0  0  0  0  0  0  0  0
    4.2796    4.1618    1.2910 H   0  0  0  1  0  0  0  0  0  0  0  0
    3.6376    5.7146   -1.9469 H   0  0  0  1  0  0  0  0  0  0  0  0
    1.4203    5.9650    1.6876 H   0  0  0  1  0  0  0  0  0  0  0  0
   -1.7597   -2.5266    3.2940 H   0  0  0  1  0  0  0  0  0  0  0  0
   -3.7458    1.1012    2.2529 H   0  0  0  1  0  0  0  0  0  0  0  0
    3.6058    8.1695   -2.1356 H   0  0  0  1  0  0  0  0  0  0  0  0
    1.3880    8.4199    1.4988 H   0  0  0  1  0  0  0  0  0  0  0  0
    2.4849    9.5224   -0.4103 H   0  0  0  1  0  0  0  0  0  0  0  0
   -3.8430   -3.3813    4.2901 H   0  0  0  1  0  0  0  0  0  0  0  0
   -5.8291    0.2466    3.2494 H   0  0  0  1  0  0  0  0  0  0  0  0
   -5.8789   -1.9966    4.2637 H   0  0  0  1  0  0  0  0  0  0  0  0
  1  8  2  0  0  0  0
  2  3  1  0  0  0  0
  2  8  1  0  0  0  0
  2 31  1  0  0  0  0
  3  4  1  0  0  0  0
  3  9  1  0  0  0  0
  3 23  1  0  0  0  0
  4  7  1  0  0  0  0
  4 24  1  0  0  0  0
  4 25  1  0  0  0  0
  5  6  1  0  0  0  0
  5 10  1  0  0  0  0
  5 11  1  0  0  0  0
  5 26  1  0  0  0  0
  6  8  1  0  0  0  0
  6 27  1  0  0  0  0
  6 28  1  0  0  0  0
  7 12  1  0  0  0  0
  7 29  1  0  0  0  0
  7 30  1  0  0  0  0
  9 32  1  0  0  0  0
  9 33  1  0  0  0  0
  9 34  1  0  0  0  0
 10 13  4  0  0  0  0
 10 14  4  0  0  0  0
 11 35  1  0  0  0  0
 11 36  1  0  0  0  0
 11 37  1  0  0  0  0
 12 15  4  0  0  0  0
 12 16  4  0  0  0  0
 13 17  4  0  0  0  0
 13 38  1  0  0  0  0
 14 18  4  0  0  0  0
 14 39  1  0  0  0  0
 15 20  4  0  0  0  0
 15 40  1  0  0  0  0
 16 21  4  0  0  0  0
 16 41  1  0  0  0  0
 17 19  4  0  0  0  0
 17 42  1  0  0  0  0
 18 19  4  0  0  0  0
 18 43  1  0  0  0  0
 19 44  1  0  0  0  0
 20 22  4  0  0  0  0
 20 45  1  0  0  0  0
 21 22  4  0  0  0  0
 21 46  1  0  0  0  0
 22 47  1  0  0  0  0
M  END
> <Activity>
0.01

> <Mapped(file=2032.csv.activities,property=Cached(PUBCHEM_COMPOUND_CID))>
100

> <MatchIndices>
92 

> <PUBCHEM_ATOM_DEF_STEREO_COUNT>
0

> <PUBCHEM_ATOM_UDEF_STEREO_COUNT>
2

> <PUBCHEM_BONDANNOTATIONS>
10  13  8
10  14  8
12  15  8
12  16  8
13  17  8
14  18  8
15  20  8
16  21  8
17  19  8
18  19  8
20  22  8
21  22  8
3  23  3
5  26  3

> <PUBCHEM_BOND_DEF_STEREO_COUNT>
0

> <PUBCHEM_BOND_UDEF_STEREO_COUNT>
0

> <PUBCHEM_CACTVS_COMPLEXITY>
316

> <PUBCHEM_CACTVS_HBOND_ACCEPTOR>
1

> <PUBCHEM_CACTVS_HBOND_DONOR>
1

> <PUBCHEM_CACTVS_ROTATABLE_BOND>
7

> <PUBCHEM_CACTVS_SUBSKEYS>
AAADceB6IAAAAAAAAAAAAAAAAAAAAAAAAAAwYAAAAAAAAAABQAAAHgAQAAAADSjBmAQyAILAAACIAiFSEAACAAAgAAAIiIEIAIgIIDKAkRCEIAAglgCIiAcYiMCOgAAAAAAAAAAAAAAAAAAAAAAAAAAAAA==

> <PUBCHEM_CACTVS_TAUTO_COUNT>
2

> <PUBCHEM_CACTVS_TPSA>
29.1

> <PUBCHEM_COMPONENT_COUNT>
1

> <PUBCHEM_COMPOUND_CANONICALIZED>
1

> <PUBCHEM_COMPOUND_CID>
4009407

> <PUBCHEM_COORDINATE_TYPE>
1
5
255

> <PUBCHEM_EXACT_MASS>
295.193614

> <PUBCHEM_HEAVY_ATOM_COUNT>
22

> <PUBCHEM_ISOTOPIC_ATOM_COUNT>
0

> <PUBCHEM_IUPAC_CAS_NAME>
3-phenyl-N-(4-phenylbutan-2-yl)butanamide

> <PUBCHEM_IUPAC_INCHI>
InChI=1S/C20H25NO/c1-16(19-11-7-4-8-12-19)15-20(22)21-17(2)13-14-18-9-5-3-6-10-18/h3-12,16-17H,13-15H2,1-2H3,(H,21,22)

> <PUBCHEM_IUPAC_INCHIKEY>
DBZJGQXPYGNZGH-UHFFFAOYSA-N

> <PUBCHEM_IUPAC_NAME>
3-phenyl-N-(4-phenylbutan-2-yl)butanamide

> <PUBCHEM_IUPAC_OPENEYE_NAME>
N-(1-methyl-3-phenyl-propyl)-3-phenyl-butanamide

> <PUBCHEM_IUPAC_SYSTEMATIC_NAME>
3-phenyl-N-(4-phenylbutan-2-yl)butanamide

> <PUBCHEM_IUPAC_TRADITIONAL_NAME>
N-(1-methyl-3-phenyl-propyl)-3-phenyl-butyramide

> <PUBCHEM_MOLECULAR_FORMULA>
C20H25NO

> <PUBCHEM_MOLECULAR_WEIGHT>
295.4186

> <PUBCHEM_MONOISOTOPIC_WEIGHT>
295.193614

> <PUBCHEM_OPENEYE_CAN_SMILES>
CC(CCC1=CC=CC=C1)NC(=O)CC(C)C2=CC=CC=C2

> <PUBCHEM_OPENEYE_ISO_SMILES>
CC(CCC1=CC=CC=C1)NC(=O)CC(C)C2=CC=CC=C2

> <PUBCHEM_TOTAL_CHARGE>
0

> <PUBCHEM_XLOGP3_AA>
4.5

$$$$
Largest isolated from Written by BCL::WriteToMDL,665176
JMcorina  04211410293D 1   1.00000     0.00000 
CORINA 3.49 0026  01.06.2011
 43 45  0  0  0  0  0  0  0  0999 V2000
   -0.0218    1.7577    0.0117 S   0  0  0  1  0  0  0  0  0  0  0  0
   -1.6486   -3.7681   -1.3660 O   0  0  0  1  0  0  0  0  0  0  0  0
   -1.0846   -0.8308    0.0080 N   0  0  0  1  0  0  0  0  0  0  0  0
    0.7170   -2.0066   -0.0199 N   0  0  0  1  0  0  0  0  0  0  0  0
    1.0681   -0.7702   -0.0127 N   0  0  0  1  0  0  0  0  0  0  0  0
    2.7912    8.8619    0.0230 N   0  0  0  1  0  0  0  0  0  0  0  0
   -2.4956   -0.4370    0.0240 C   0  0  0  1  0  0  0  0  0  0  0  0
   -0.5824   -2.1027   -0.0102 C   0  0  0  1  0  0  0  0  0  0  0  0
    0.0021   -0.0041    0.0020 C   0  0  0  1  0  0  0  0  0  0  0  0
   -1.3835   -3.3791   -0.0168 C   0  0  0  1  0  0  0  0  0  0  0  0
   -2.9748   -0.3157    1.4719 C   0  0  0  1  0  0  0  0  0  0  0  0
    1.7562    2.0963   -0.0035 C   0  0  0  1  0  0  0  0  0  0  0  0
    1.9840    3.5860    0.0024 C   0  0  0  1  0  0  0  0  0  0  0  0
    2.0995    4.2602    1.2051 C   0  0  0  1  0  0  0  0  0  0  0  0
    2.0823    4.2722   -1.1950 C   0  0  0  1  0  0  0  0  0  0  0  0
   -2.3664   -4.9073   -1.5499 C   0  0  0  1  0  0  0  0  0  0  0  0
    2.3081    5.6238    1.2177 C   0  0  0  1  0  0  0  0  0  0  0  0
    2.2912    5.6358   -1.1970 C   0  0  0  1  0  0  0  0  0  0  0  0
    2.4030    6.3234    0.0131 C   0  0  0  1  0  0  0  0  0  0  0  0
   -2.6603   -5.3438   -2.8336 C   0  0  0  1  0  0  0  0  0  0  0  0
   -2.8017   -5.6389   -0.4544 C   0  0  0  1  0  0  0  0  0  0  0  0
   -3.3902   -6.5021   -3.0179 C   0  0  0  1  0  0  0  0  0  0  0  0
   -3.5312   -6.7965   -0.6441 C   0  0  0  1  0  0  0  0  0  0  0  0
   -3.8281   -7.2261   -1.9244 C   0  0  0  1  0  0  0  0  0  0  0  0
    2.6195    7.7390    0.0186 C   0  0  0  1  0  0  0  0  0  0  0  0
   -2.6104    0.5235   -0.4784 H   0  0  0  1  0  0  0  0  0  0  0  0
   -3.0891   -1.1909   -0.4932 H   0  0  0  1  0  0  0  0  0  0  0  0
   -2.3259   -3.2194    0.5072 H   0  0  0  1  0  0  0  0  0  0  0  0
   -0.8183   -4.1654    0.4837 H   0  0  0  1  0  0  0  0  0  0  0  0
   -4.0246   -0.0227    1.4838 H   0  0  0  1  0  0  0  0  0  0  0  0
   -2.8599   -1.2762    1.9743 H   0  0  0  1  0  0  0  0  0  0  0  0
   -2.3813    0.4382    1.9891 H   0  0  0  1  0  0  0  0  0  0  0  0
    2.2177    1.6547    0.8798 H   0  0  0  1  0  0  0  0  0  0  0  0
    2.2007    1.6643   -0.9001 H   0  0  0  1  0  0  0  0  0  0  0  0
    2.0259    3.7178    2.1360 H   0  0  0  1  0  0  0  0  0  0  0  0
    1.9956    3.7391   -2.1303 H   0  0  0  1  0  0  0  0  0  0  0  0
    2.3974    6.1490    2.1572 H   0  0  0  1  0  0  0  0  0  0  0  0
    2.3678    6.1702   -2.1324 H   0  0  0  1  0  0  0  0  0  0  0  0
   -2.3192   -4.7782   -3.6881 H   0  0  0  1  0  0  0  0  0  0  0  0
   -2.5700   -5.3038    0.5458 H   0  0  0  1  0  0  0  0  0  0  0  0
   -3.6193   -6.8423   -4.0170 H   0  0  0  1  0  0  0  0  0  0  0  0
   -3.8702   -7.3664    0.2084 H   0  0  0  1  0  0  0  0  0  0  0  0
   -4.3991   -8.1310   -2.0705 H   0  0  0  1  0  0  0  0  0  0  0  0
  1  9  1  0  0  0  0
  1 12  1  0  0  0  0
  2 10  1  0  0  0  0
  2 16  1  0  0  0  0
  3  7  1  0  0  0  0
  3  8  4  0  0  0  0
  3  9  4  0  0  0  0
  4  5  4  0  0  0  0
  4  8  4  0  0  0  0
  5  9  4  0  0  0  0
  6 25  3  0  0  0  0
  7 11  1  0  0  0  0
  7 26  1  0  0  0  0
  7 27  1  0  0  0  0
  8 10  1  0  0  0  0
 10 28  1  0  0  0  0
 10 29  1  0  0  0  0
 11 30  1  0  0  0  0
 11 31  1  0  0  0  0
 11 32  1  0  0  0  0
 12 13  1  0  0  0  0
 12 33  1  0  0  0  0
 12 34  1  0  0  0  0
 13 14  4  0  0  0  0
 13 15  4  0  0  0  0
 14 17  4  0  0  0  0
 14 35  1  0  0  0  0
 15 18  4  0  0  0  0
 15 36  1  0  0  0  0
 16 20  4  0  0  0  0
 16 21  4  0  0  0  0
 17 19  4  0  0  0  0
 17 37  1  0  0  0  0
 18 19  4  0  0  0  0
 18 38  1  0  0  0  0
 19 25  1  0  0  0  0
 20 22  4  0  0  0  0
 20 39  1  0  0  0  0
 21 23  4  0  0  0  0
 21 40  1  0  0  0  0
 22 24  4  0  0  0  0
 22 41  1  0  0  0  0
 23 24  4  0  0  0  0
 23 42  1  0  0  0  0
 24 43  1  0  0  0  0
M  END
> <Activity>
0.01

> <Mapped(file=2032.csv.activities,property=Cached(PUBCHEM_COMPOUND_CID))>
100

> <MatchIndices>
138 

> <PUBCHEM_ATOM_DEF_STEREO_COUNT>
0

> <PUBCHEM_ATOM_UDEF_STEREO_COUNT>
0

> <PUBCHEM_BONDANNOTATIONS>
13  14  8
13  15  8
14  17  8
15  18  8
16  20  8
16  21  8
17  19  8
18  19  8
20  22  8
21  23  8
22  24  8
23  24  8
3  8  8
3  9  8
4  5  8
4  8  8
5  9  8

> <PUBCHEM_BOND_DEF_STEREO_COUNT>
0

> <PUBCHEM_BOND_UDEF_STEREO_COUNT>
0

> <PUBCHEM_CACTVS_COMPLEXITY>
440

> <PUBCHEM_CACTVS_HBOND_ACCEPTOR>
3

> <PUBCHEM_CACTVS_HBOND_DONOR>
0

> <PUBCHEM_CACTVS_ROTATABLE_BOND>
7

> <PUBCHEM_CACTVS_SUBSKEYS>
AAADceB7oABAAAAAAAAAAAAAAAAAAWAAAAAwYAAAAAAAAAAB0AAAHgQIAAAADATl2wazFocMFAiyBiJiJAQy2AtgILAdyAAeCIiOriKkORqDOCCkyBOYqA+AwAAOQAAAAAAAAACAAAAAAAAAAAAAAAAAAA==

> <PUBCHEM_CACTVS_TAUTO_COUNT>
1

> <PUBCHEM_CACTVS_TPSA>
89

> <PUBCHEM_COMPONENT_COUNT>
1

> <PUBCHEM_COMPOUND_CANONICALIZED>
1

> <PUBCHEM_COMPOUND_CID>
665176

> <PUBCHEM_COORDINATE_TYPE>
1
5
255

> <PUBCHEM_EXACT_MASS>
350.120132

> <PUBCHEM_HEAVY_ATOM_COUNT>
25

> <PUBCHEM_ISOTOPIC_ATOM_COUNT>
0

> <PUBCHEM_IUPAC_CAS_NAME>
4-[[[4-ethyl-5-(phenoxymethyl)-1,2,4-triazol-3-yl]thio]methyl]benzonitrile

> <PUBCHEM_IUPAC_INCHI>
InChI=1S/C19H18N4OS/c1-2-23-18(13-24-17-6-4-3-5-7-17)21-22-19(23)25-14-16-10-8-15(12-20)9-11-16/h3-11H,2,13-14H2,1H3

> <PUBCHEM_IUPAC_INCHIKEY>
RNGHWMDYNNVLLB-UHFFFAOYSA-N

> <PUBCHEM_IUPAC_NAME>
4-[[4-ethyl-5-(phenoxymethyl)-1,2,4-triazol-3-yl]sulfanylmethyl]benzonitrile

> <PUBCHEM_IUPAC_OPENEYE_NAME>
4-[[4-ethyl-5-(phenoxymethyl)-1,2,4-triazol-3-yl]sulfanylmethyl]benzonitrile

> <PUBCHEM_IUPAC_SYSTEMATIC_NAME>
4-[[4-ethyl-5-(phenoxymethyl)-1,2,4-triazol-3-yl]sulfanylmethyl]benzenecarbonitrile

> <PUBCHEM_IUPAC_TRADITIONAL_NAME>
4-[[[4-ethyl-5-(phenoxymethyl)-1,2,4-triazol-3-yl]thio]methyl]benzonitrile

> <PUBCHEM_MOLECULAR_FORMULA>
C19H18N4OS

> <PUBCHEM_MOLECULAR_WEIGHT>
350.43742

> <PUBCHEM_MONOISOTOPIC_WEIGHT>
350.120132

> <PUBCHEM_OPENEYE_CAN_SMILES>
CCN1C(=NN=C1SCC2=CC=C(C=C2)C#N)COC3=CC=CC=C3

> <PUBCHEM_OPENEYE_ISO_SMILES>
CCN1C(=NN=C1SCC2=CC=C(C=C2)C#N)COC3=CC=CC=C3

> <PUBCHEM_TOTAL_CHARGE>
0

> <PUBCHEM_XLOGP3_AA>
3.3

$$$$
Largest isolated from Written by BCL::WriteToMDL,660907
JMcorina  04211410293D 1   1.00000     0.00000 
CORINA 3.49 0026  01.06.2011
 40 42  0  0  0  0  0  0  0  0999 V2000
   -0.0146    1.4640   -0.0894 N   0  0  0  1  0  0  0  0  0  0  0  0
    1.5667    3.2850   -0.0493 N   0  0  0  1  0  0  0  0  0  0  0  0
    1.9660   -1.6537    2.2863 N   0  0  0  1  0  0  0  0  0  0  0  0
    2.2351   -1.7932   -1.9910 N   0  0  0  1  0  0  0  0  0  0  0  0
    4.7379    1.3301    0.2140 N   0  0  0  1  0  0  0  0  0  0  0  0
    0.0024   -0.0037   -0.0405 C   0  0  0  1  0  0  0  0  0  0  0  0
    1.4946   -0.3702    0.0654 C   0  0  0  1  0  0  0  0  0  0  0  0
    2.1998    0.9684    0.0661 C   0  0  0  1  0  0  0  0  0  0  0  0
    1.2621    1.9454   -0.0248 C   0  0  0  1  0  0  0  0  0  0  0  0
   -0.7476   -0.4981    1.1696 C   0  0  0  1  0  0  0  0  0  0  0  0
   -1.1654    2.2510   -0.1928 C   0  0  0  1  0  0  0  0  0  0  0  0
   -1.5366   -1.6296    1.0791 C   0  0  0  1  0  0  0  0  0  0  0  0
   -0.6420    0.1765    2.3715 C   0  0  0  1  0  0  0  0  0  0  0  0
    1.7607   -1.0946    1.3189 C   0  0  0  1  0  0  0  0  0  0  0  0
    1.9125   -1.1734   -1.0953 C   0  0  0  1  0  0  0  0  0  0  0  0
   -1.9368    2.2080   -1.3474 C   0  0  0  1  0  0  0  0  0  0  0  0
   -1.5432    3.0732    0.8609 C   0  0  0  1  0  0  0  0  0  0  0  0
    3.6151    1.1701    0.1486 C   0  0  0  1  0  0  0  0  0  0  0  0
   -3.0731    2.9862   -1.4460 C   0  0  0  1  0  0  0  0  0  0  0  0
   -2.2246   -2.0831    2.1890 C   0  0  0  1  0  0  0  0  0  0  0  0
   -1.3299   -0.2770    3.4814 C   0  0  0  1  0  0  0  0  0  0  0  0
   -2.6811    3.8491    0.7556 C   0  0  0  1  0  0  0  0  0  0  0  0
   -3.4437    3.8079   -0.3970 C   0  0  0  1  0  0  0  0  0  0  0  0
   -2.1231   -1.4054    3.3896 C   0  0  0  1  0  0  0  0  0  0  0  0
   -3.9102    2.9406   -2.6983 C   0  0  0  1  0  0  0  0  0  0  0  0
   -0.4277   -0.4196   -0.9516 H   0  0  0  1  0  0  0  0  0  0  0  0
   -1.6159   -2.1590    0.1411 H   0  0  0  1  0  0  0  0  0  0  0  0
   -0.0217    1.0577    2.4434 H   0  0  0  1  0  0  0  0  0  0  0  0
   -1.6478    1.5669   -2.1671 H   0  0  0  1  0  0  0  0  0  0  0  0
    0.8553    3.9444   -0.0426 H   0  0  0  1  0  0  0  0  0  0  0  0
    2.4932    3.5714   -0.0733 H   0  0  0  1  0  0  0  0  0  0  0  0
   -0.9482    3.1056    1.7616 H   0  0  0  1  0  0  0  0  0  0  0  0
   -2.8416   -2.9666    2.1181 H   0  0  0  1  0  0  0  0  0  0  0  0
   -1.2471    0.2499    4.4206 H   0  0  0  1  0  0  0  0  0  0  0  0
   -2.9757    4.4884    1.5747 H   0  0  0  1  0  0  0  0  0  0  0  0
   -4.3327    4.4158   -0.4768 H   0  0  0  1  0  0  0  0  0  0  0  0
   -2.6609   -1.7595    4.2567 H   0  0  0  1  0  0  0  0  0  0  0  0
   -4.6702    2.1655   -2.5994 H   0  0  0  1  0  0  0  0  0  0  0  0
   -4.3934    3.9062   -2.8478 H   0  0  0  1  0  0  0  0  0  0  0  0
   -3.2726    2.7172   -3.5537 H   0  0  0  1  0  0  0  0  0  0  0  0
  1  6  1  0  0  0  0
  1  9  1  0  0  0  0
  1 11  1  0  0  0  0
  2  9  1  0  0  0  0
  2 30  1  0  0  0  0
  2 31  1  0  0  0  0
  3 14  3  0  0  0  0
  4 15  3  0  0  0  0
  5 18  3  0  0  0  0
  6  7  1  0  0  0  0
  6 10  1  0  0  0  0
  6 26  1  0  0  0  0
  7  8  1  0  0  0  0
  7 14  1  0  0  0  0
  7 15  1  0  0  0  0
  8  9  2  0  0  0  0
  8 18  1  0  0  0  0
 10 12  4  0  0  0  0
 10 13  4  0  0  0  0
 11 16  4  0  0  0  0
 11 17  4  0  0  0  0
 12 20  4  0  0  0  0
 12 27  1  0  0  0  0
 13 21  4  0  0  0  0
 13 28  1  0  0  0  0
 16 19  4  0  0  0  0
 16 29  1  0  0  0  0
 17 22  4  0  0  0  0
 17 32  1  0  0  0  0
 19 23  4  0  0  0  0
 19 25  1  0  0  0  0
 20 24  4  0  0  0  0
 20 33  1  0  0  0  0
 21 24  4  0  0  0  0
 21 34  1  0  0  0  0
 22 23  4  0  0  0  0
 22 35  1  0  0  0  0
 23 36  1  0  0  0  0
 24 37  1  0  0  0  0
 25 38  1  0  0  0  0
 25 39  1  0  0  0  0
 25 40  1  0  0  0  0
M  END
> <Activity>
0.01

> <Mapped(file=2032.csv.activities,property=Cached(PUBCHEM_COMPOUND_CID))>
100

> <MatchIndices>
225 

> <PUBCHEM_ATOM_DEF_STEREO_COUNT>
0

> <PUBCHEM_ATOM_UDEF_STEREO_COUNT>
1

> <PUBCHEM_BONDANNOTATIONS>
10  12  8
10  13  8
11  16  8
11  17  8
12  20  8
13  21  8
16  19  8
17  22  8
19  23  8
20  24  8
21  24  8
22  23  8
6  10  3

> <PUBCHEM_BOND_DEF_STEREO_COUNT>
0

> <PUBCHEM_BOND_UDEF_STEREO_COUNT>
0

> <PUBCHEM_CACTVS_COMPLEXITY>
686

> <PUBCHEM_CACTVS_HBOND_ACCEPTOR>
5

> <PUBCHEM_CACTVS_HBOND_DONOR>
1

> <PUBCHEM_CACTVS_ROTATABLE_BOND>
2

> <PUBCHEM_CACTVS_SUBSKEYS>
AAADccB7gAAAAAAAAAAAAAAAAAAAAQAAAAAwYAAAAAAAAAABQAAAHAAQAAAADijBGAQzwINAAACQBiRCQACiAAAhAgAIiAAIZIiIoCLAkZGEIAhggALIyC8QgMAPAAAAQAAAAAAAAACAAAAAAAAAAAAAAA==

> <PUBCHEM_CACTVS_TAUTO_COUNT>
2

> <PUBCHEM_CACTVS_TPSA>
101

> <PUBCHEM_COMPONENT_COUNT>
1

> <PUBCHEM_COMPOUND_CANONICALIZED>
1

> <PUBCHEM_COMPOUND_CID>
660907

> <PUBCHEM_COORDINATE_TYPE>
1
5
255

> <PUBCHEM_EXACT_MASS>
325.132746

> <PUBCHEM_HEAVY_ATOM_COUNT>
25

> <PUBCHEM_ISOTOPIC_ATOM_COUNT>
0

> <PUBCHEM_IUPAC_CAS_NAME>
5-amino-1-(3-methylphenyl)-2-phenyl-2H-pyrrole-3,3,4-tricarbonitrile

> <PUBCHEM_IUPAC_INCHI>
InChI=1S/C20H15N5/c1-14-6-5-9-16(10-14)25-18(15-7-3-2-4-8-15)20(12-22,13-23)17(11-21)19(25)24/h2-10,18H,24H2,1H3

> <PUBCHEM_IUPAC_INCHIKEY>
SNTJIIZCJXPGLE-UHFFFAOYSA-N

> <PUBCHEM_IUPAC_NAME>
5-amino-1-(3-methylphenyl)-2-phenyl-2H-pyrrole-3,3,4-tricarbonitrile

> <PUBCHEM_IUPAC_OPENEYE_NAME>
5-amino-1-(m-tolyl)-2-phenyl-2H-pyrrole-3,3,4-tricarbonitrile

> <PUBCHEM_IUPAC_SYSTEMATIC_NAME>
5-azanyl-1-(3-methylphenyl)-2-phenyl-2H-pyrrole-3,3,4-tricarbonitrile

> <PUBCHEM_IUPAC_TRADITIONAL_NAME>
5-amino-1-(m-tolyl)-2-phenyl-2-pyrroline-3,3,4-tricarbonitrile

> <PUBCHEM_MOLECULAR_FORMULA>
C20H15N5

> <PUBCHEM_MOLECULAR_WEIGHT>
325.3666

> <PUBCHEM_MONOISOTOPIC_WEIGHT>
325.132746

> <PUBCHEM_OPENEYE_CAN_SMILES>
CC1=CC(=CC=C1)N2C(C(C(=C2N)C#N)(C#N)C#N)C3=CC=CC=C3

> <PUBCHEM_OPENEYE_ISO_SMILES>
CC1=CC(=CC=C1)N2C(C(C(=C2N)C#N)(C#N)C#N)C3=CC=CC=C3

> <PUBCHEM_TOTAL_CHARGE>
0

> <PUBCHEM_XLOGP3_AA>
3.1

$$$$
Largest isolated from Written by BCL::WriteToMDL,1488386
JMcorina  04211410293D 1   1.00000     0.00000 
CORINA 3.49 0026  01.06.2011
 37 38  0  0  0  0  0  0  0  0999 V2000
   -3.7068    0.3001    3.8265 Cl  0  0  0  1  0  0  0  0  0  0  0  0
   -0.0172    1.4168    0.0098 S   0  0  0  1  0  0  0  0  0  0  0  0
   -2.0729   -0.1857   -1.4201 O   0  0  0  1  0  0  0  0  0  0  0  0
    0.0021   -0.0041    0.0020 O   0  0  0  1  0  0  0  0  0  0  0  0
    1.1617    2.2101    0.0028 O   0  0  0  1  0  0  0  0  0  0  0  0
   -2.5942    1.4111   -3.0159 N   0  0  0  1  0  0  0  0  0  0  0  0
   -0.9567    1.9094   -1.3970 C   0  0  0  1  0  0  0  0  0  0  0  0
   -0.7770    3.1626   -1.9566 C   0  0  0  1  0  0  0  0  0  0  0  0
   -0.9297    1.8941    1.4396 C   0  0  0  1  0  0  0  0  0  0  0  0
   -1.8871    1.0453   -1.9595 C   0  0  0  1  0  0  0  0  0  0  0  0
   -1.5383    3.5082   -3.0644 C   0  0  0  1  0  0  0  0  0  0  0  0
   -2.4452    2.5985   -3.5713 C   0  0  0  1  0  0  0  0  0  0  0  0
    0.2221    4.1299   -1.3759 C   0  0  0  1  0  0  0  0  0  0  0  0
   -1.8427    1.0211    1.9997 C   0  0  0  1  0  0  0  0  0  0  0  0
   -0.7279    3.1400    2.0041 C   0  0  0  1  0  0  0  0  0  0  0  0
   -3.2753    2.9668   -4.7739 C   0  0  0  1  0  0  0  0  0  0  0  0
   -2.5592    1.3961    3.1226 C   0  0  0  1  0  0  0  0  0  0  0  0
   -1.4430    3.5150    3.1260 C   0  0  0  1  0  0  0  0  0  0  0  0
   -3.0446   -1.0275   -2.0440 C   0  0  0  1  0  0  0  0  0  0  0  0
   -2.3610    2.6449    3.6836 C   0  0  0  1  0  0  0  0  0  0  0  0
   -3.1133   -2.3638   -1.3021 C   0  0  0  1  0  0  0  0  0  0  0  0
   -1.4229    4.4783   -3.5249 H   0  0  0  1  0  0  0  0  0  0  0  0
    1.1905    3.9827   -1.8541 H   0  0  0  1  0  0  0  0  0  0  0  0
   -0.1175    5.1510   -1.5496 H   0  0  0  1  0  0  0  0  0  0  0  0
    0.3159    3.9555   -0.3041 H   0  0  0  1  0  0  0  0  0  0  0  0
   -1.9973    0.0463    1.5611 H   0  0  0  1  0  0  0  0  0  0  0  0
   -0.0110    3.8203    1.5686 H   0  0  0  1  0  0  0  0  0  0  0  0
   -4.2027    3.4361   -4.4454 H   0  0  0  1  0  0  0  0  0  0  0  0
   -2.7180    3.6630   -5.4007 H   0  0  0  1  0  0  0  0  0  0  0  0
   -3.5057    2.0678   -5.3455 H   0  0  0  1  0  0  0  0  0  0  0  0
   -4.0203   -0.5428   -2.0107 H   0  0  0  1  0  0  0  0  0  0  0  0
   -2.7610   -1.2023   -3.0819 H   0  0  0  1  0  0  0  0  0  0  0  0
   -1.2847    4.4882    3.5668 H   0  0  0  1  0  0  0  0  0  0  0  0
   -2.9202    2.9382    4.5598 H   0  0  0  1  0  0  0  0  0  0  0  0
   -2.1376   -2.8485   -1.3354 H   0  0  0  1  0  0  0  0  0  0  0  0
   -3.3969   -2.1890   -0.2642 H   0  0  0  1  0  0  0  0  0  0  0  0
   -3.8545   -3.0059   -1.7780 H   0  0  0  1  0  0  0  0  0  0  0  0
  1 17  1  0  0  0  0
  2  4  2  0  0  0  0
  2  5  2  0  0  0  0
  2  7  1  0  0  0  0
  2  9  1  0  0  0  0
  3 10  1  0  0  0  0
  3 19  1  0  0  0  0
  6 10  4  0  0  0  0
  6 12  4  0  0  0  0
  7  8  4  0  0  0  0
  7 10  4  0  0  0  0
  8 11  4  0  0  0  0
  8 13  1  0  0  0  0
  9 14  4  0  0  0  0
  9 15  4  0  0  0  0
 11 12  4  0  0  0  0
 11 22  1  0  0  0  0
 12 16  1  0  0  0  0
 13 23  1  0  0  0  0
 13 24  1  0  0  0  0
 13 25  1  0  0  0  0
 14 17  4  0  0  0  0
 14 26  1  0  0  0  0
 15 18  4  0  0  0  0
 15 27  1  0  0  0  0
 16 28  1  0  0  0  0
 16 29  1  0  0  0  0
 16 30  1  0  0  0  0
 17 20  4  0  0  0  0
 18 20  4  0  0  0  0
 18 33  1  0  0  0  0
 19 21  1  0  0  0  0
 19 31  1  0  0  0  0
 19 32  1  0  0  0  0
 20 34  1  0  0  0  0
 21 35  1  0  0  0  0
 21 36  1  0  0  0  0
 21 37  1  0  0  0  0
M  END
> <Activity>
0.01

> <Mapped(file=2032.csv.activities,property=Cached(PUBCHEM_COMPOUND_CID))>
100

> <MatchIndices>
100 

> <PUBCHEM_ATOM_DEF_STEREO_COUNT>
0

> <PUBCHEM_ATOM_UDEF_STEREO_COUNT>
0

> <PUBCHEM_BONDANNOTATIONS>
11  12  8
14  17  8
15  18  8
17  20  8
18  20  8
6  10  8
6  12  8
7  10  8
7  8  8
8  11  8
9  14  8
9  15  8

> <PUBCHEM_BOND_DEF_STEREO_COUNT>
0

> <PUBCHEM_BOND_UDEF_STEREO_COUNT>
0

> <PUBCHEM_CACTVS_COMPLEXITY>
437

> <PUBCHEM_CACTVS_HBOND_ACCEPTOR>
4

> <PUBCHEM_CACTVS_HBOND_DONOR>
0

> <PUBCHEM_CACTVS_ROTATABLE_BOND>
4

> <PUBCHEM_CACTVS_SUBSKEYS>
AAADceByMABEAAAAAAAAAAAAAAAAAAAAAAA8QAAAAAAAAAABwAAAHgYAAAAADAqh3iIyhZIIFAqgAyRiRHDCiCAhLzAImD40bpgMJmLls5uOOCjkwBHo6AeQUAEOAAAAABAAAAAAAAAAIAAAAAAAAAAAAA==

> <PUBCHEM_CACTVS_TAUTO_COUNT>
1

> <PUBCHEM_CACTVS_TPSA>
64.6

> <PUBCHEM_COMPONENT_COUNT>
1

> <PUBCHEM_COMPOUND_CANONICALIZED>
1

> <PUBCHEM_COMPOUND_CID>
1488386

> <PUBCHEM_COORDINATE_TYPE>
1
5
255

> <PUBCHEM_EXACT_MASS>
325.053942

> <PUBCHEM_HEAVY_ATOM_COUNT>
21

> <PUBCHEM_ISOTOPIC_ATOM_COUNT>
0

> <PUBCHEM_IUPAC_CAS_NAME>
3-(3-chlorophenyl)sulfonyl-2-ethoxy-4,6-dimethylpyridine

> <PUBCHEM_IUPAC_INCHI>
InChI=1S/C15H16ClNO3S/c1-4-20-15-14(10(2)8-11(3)17-15)21(18,19)13-7-5-6-12(16)9-13/h5-9H,4H2,1-3H3

> <PUBCHEM_IUPAC_INCHIKEY>
HRXMHDDRBMAQDP-UHFFFAOYSA-N

> <PUBCHEM_IUPAC_NAME>
3-(3-chlorophenyl)sulfonyl-2-ethoxy-4,6-dimethylpyridine

> <PUBCHEM_IUPAC_OPENEYE_NAME>
3-(3-chlorophenyl)sulfonyl-2-ethoxy-4,6-dimethyl-pyridine

> <PUBCHEM_IUPAC_SYSTEMATIC_NAME>
3-(3-chlorophenyl)sulfonyl-2-ethoxy-4,6-dimethyl-pyridine

> <PUBCHEM_IUPAC_TRADITIONAL_NAME>
3-(3-chlorophenyl)sulfonyl-2-ethoxy-4,6-dimethyl-pyridine

> <PUBCHEM_MOLECULAR_FORMULA>
C15H16ClNO3S

> <PUBCHEM_MOLECULAR_WEIGHT>
325.81044

> <PUBCHEM_MONOISOTOPIC_WEIGHT>
325.053942

> <PUBCHEM_OPENEYE_CAN_SMILES>
CCOC1=C(C(=CC(=N1)C)C)S(=O)(=O)C2=CC(=CC=C2)Cl

> <PUBCHEM_OPENEYE_ISO_SMILES>
CCOC1=C(C(=CC(=N1)C)C)S(=O)(=O)C2=CC(=CC=C2)Cl

> <PUBCHEM_TOTAL_CHARGE>
0

> <PUBCHEM_XLOGP3_AA>
3.7

$$$$
Largest isolated from Written by BCL::WriteToMDL,2977939
JMcorina  04211410293D 1   1.00000     0.00000 
CORINA 3.49 0026  01.06.2011
 37 37  0  0  0  0  0  0  0  0999 V2000
    0.9863    1.9394    2.8434 Br  0  0  0  1  0  0  0  0  0  0  0  0
    5.1694    4.1577   -0.0259 Cl  0  0  0  1  0  0  0  0  0  0  0  0
   -0.0173    1.4248    0.0099 O   0  0  0  1  0  0  0  0  0  0  0  0
   -4.9151   -4.0531    1.1941 O   0  0  0  1  0  0  0  0  0  0  0  0
   -2.7907   -2.5720    0.0149 N   0  0  0  1  0  0  0  0  0  0  0  0
   -1.4126   -2.0635    0.0045 C   0  0  0  1  0  0  0  0  0  0  0  0
   -1.4333   -0.5336    0.0129 C   0  0  0  1  0  0  0  0  0  0  0  0
   -2.8100   -4.0408    0.0072 C   0  0  0  1  0  0  0  0  0  0  0  0
   -4.2590   -4.5319    0.0184 C   0  0  0  1  0  0  0  0  0  0  0  0
    0.0021   -0.0041    0.0020 C   0  0  0  1  0  0  0  0  0  0  0  0
   -4.2791   -6.0618    0.0104 C   0  0  0  1  0  0  0  0  0  0  0  0
    1.1854    2.0583    0.0018 C   0  0  0  1  0  0  0  0  0  0  0  0
    1.7884    2.3885   -1.2030 C   0  0  0  1  0  0  0  0  0  0  0  0
    1.8089    2.3809    1.1990 C   0  0  0  1  0  0  0  0  0  0  0  0
    3.0104    3.0327   -1.2093 C   0  0  0  1  0  0  0  0  0  0  0  0
    1.1110    2.0441   -2.5043 C   0  0  0  1  0  0  0  0  0  0  0  0
    3.0317    3.0256    1.1882 C   0  0  0  1  0  0  0  0  0  0  0  0
    3.6336    3.3486   -0.0148 C   0  0  0  1  0  0  0  0  0  0  0  0
   -0.8854   -2.4246    0.8875 H   0  0  0  1  0  0  0  0  0  0  0  0
   -0.9024   -2.4150   -0.8923 H   0  0  0  1  0  0  0  0  0  0  0  0
   -1.9605   -0.1726   -0.8702 H   0  0  0  1  0  0  0  0  0  0  0  0
   -1.9435   -0.1821    0.9097 H   0  0  0  1  0  0  0  0  0  0  0  0
   -2.3095   -4.4060   -0.8896 H   0  0  0  1  0  0  0  0  0  0  0  0
   -2.2925   -4.4156    0.8903 H   0  0  0  1  0  0  0  0  0  0  0  0
   -3.3046   -2.2077    0.8032 H   0  0  0  1  0  0  0  0  0  0  0  0
   -4.7765   -4.1571   -0.8647 H   0  0  0  1  0  0  0  0  0  0  0  0
    0.5123   -0.3556   -0.8948 H   0  0  0  1  0  0  0  0  0  0  0  0
    0.5293   -0.3651    0.8851 H   0  0  0  1  0  0  0  0  0  0  0  0
   -5.3114   -6.4116    0.0183 H   0  0  0  1  0  0  0  0  0  0  0  0
   -3.7786   -6.4270   -0.8864 H   0  0  0  1  0  0  0  0  0  0  0  0
   -3.7616   -6.4365    0.8934 H   0  0  0  1  0  0  0  0  0  0  0  0
   -4.5075   -4.3481    2.0198 H   0  0  0  1  0  0  0  0  0  0  0  0
    3.4799    3.2898   -2.1473 H   0  0  0  1  0  0  0  0  0  0  0  0
    0.4681    2.8699   -2.8090 H   0  0  0  1  0  0  0  0  0  0  0  0
    1.8653    1.8687   -3.2713 H   0  0  0  1  0  0  0  0  0  0  0  0
    0.5095    1.1444   -2.3739 H   0  0  0  1  0  0  0  0  0  0  0  0
    3.5175    3.2769    2.1195 H   0  0  0  1  0  0  0  0  0  0  0  0
  1 14  1  0  0  0  0
  2 18  1  0  0  0  0
  3 10  1  0  0  0  0
  3 12  1  0  0  0  0
  4  9  1  0  0  0  0
  4 32  1  0  0  0  0
  5  6  1  0  0  0  0
  5  8  1  0  0  0  0
  5 25  1  0  0  0  0
  6  7  1  0  0  0  0
  6 19  1  0  0  0  0
  6 20  1  0  0  0  0
  7 10  1  0  0  0  0
  7 21  1  0  0  0  0
  7 22  1  0  0  0  0
  8  9  1  0  0  0  0
  8 23  1  0  0  0  0
  8 24  1  0  0  0  0
  9 11  1  0  0  0  0
  9 26  1  0  0  0  0
 10 27  1  0  0  0  0
 10 28  1  0  0  0  0
 11 29  1  0  0  0  0
 11 30  1  0  0  0  0
 11 31  1  0  0  0  0
 12 13  4  0  0  0  0
 12 14  4  0  0  0  0
 13 15  4  0  0  0  0
 13 16  1  0  0  0  0
 14 17  4  0  0  0  0
 15 18  4  0  0  0  0
 15 33  1  0  0  0  0
 16 34  1  0  0  0  0
 16 35  1  0  0  0  0
 16 36  1  0  0  0  0
 17 18  4  0  0  0  0
 17 37  1  0  0  0  0
M  END
> <Activity>
0.01

> <Mapped(file=2032.csv.activities,property=Cached(PUBCHEM_COMPOUND_CID))>
100

> <MatchIndices>
89 

> <PUBCHEM_ATOM_DEF_STEREO_COUNT>
0

> <PUBCHEM_ATOM_UDEF_STEREO_COUNT>
1

> <PUBCHEM_BONDANNOTATIONS>
12  13  8
12  14  8
13  15  8
14  17  8
15  18  8
17  18  8
9  4  3

> <PUBCHEM_BOND_DEF_STEREO_COUNT>
0

> <PUBCHEM_BOND_UDEF_STEREO_COUNT>
0

> <PUBCHEM_CACTVS_COMPLEXITY>
233

> <PUBCHEM_CACTVS_HBOND_ACCEPTOR>
3

> <PUBCHEM_CACTVS_HBOND_DONOR>
2

> <PUBCHEM_CACTVS_ROTATABLE_BOND>
7

> <PUBCHEM_CACTVS_SUBSKEYS>
AAADceByMAAEEAAAAAAAAAAAAAAAAAAAAAAwAAAAAAAAAAABAAAAHgJQCAABrBbhmCYyBoLABgCAAiBCAAACCAAgJQQAiIAMCqgONiKFMxqGOCCm0BGYqheAwCAOACAAMABIBAAAQABgAJAIAAAAAAAAAA==

> <PUBCHEM_CACTVS_TAUTO_COUNT>
1

> <PUBCHEM_CACTVS_TPSA>
41.5

> <PUBCHEM_COMPONENT_COUNT>
1

> <PUBCHEM_COMPOUND_CANONICALIZED>
1

> <PUBCHEM_COMPOUND_CID>
2977939

> <PUBCHEM_COORDINATE_TYPE>
1
5
255

> <PUBCHEM_EXACT_MASS>
335.028769

> <PUBCHEM_HEAVY_ATOM_COUNT>
18

> <PUBCHEM_ISOTOPIC_ATOM_COUNT>
0

> <PUBCHEM_IUPAC_CAS_NAME>
1-[3-(2-bromo-4-chloro-6-methylphenoxy)propylamino]-2-propanol

> <PUBCHEM_IUPAC_INCHI>
InChI=1S/C13H19BrClNO2/c1-9-6-11(15)7-12(14)13(9)18-5-3-4-16-8-10(2)17/h6-7,10,16-17H,3-5,8H2,1-2H3

> <PUBCHEM_IUPAC_INCHIKEY>
SDUQVCKXWVACFN-UHFFFAOYSA-N

> <PUBCHEM_IUPAC_NAME>
1-[3-(2-bromo-4-chloro-6-methylphenoxy)propylamino]propan-2-ol

> <PUBCHEM_IUPAC_OPENEYE_NAME>
1-[3-(2-bromo-4-chloro-6-methyl-phenoxy)propylamino]propan-2-ol

> <PUBCHEM_IUPAC_SYSTEMATIC_NAME>
1-[3-(2-bromanyl-4-chloranyl-6-methyl-phenoxy)propylamino]propan-2-ol

> <PUBCHEM_IUPAC_TRADITIONAL_NAME>
1-[3-(2-bromo-4-chloro-6-methyl-phenoxy)propylamino]propan-2-ol

> <PUBCHEM_MOLECULAR_FORMULA>
C13H19BrClNO2

> <PUBCHEM_MOLECULAR_WEIGHT>
336.65246

> <PUBCHEM_MONOISOTOPIC_WEIGHT>
335.028769

> <PUBCHEM_OPENEYE_CAN_SMILES>
CC1=CC(=CC(=C1OCCCNCC(C)O)Br)Cl

> <PUBCHEM_OPENEYE_ISO_SMILES>
CC1=CC(=CC(=C1OCCCNCC(C)O)Br)Cl

> <PUBCHEM_TOTAL_CHARGE>
0

> <PUBCHEM_XLOGP3_AA>
3.3

$$$$
Largest isolated from Written by BCL::WriteToMDL,2386422
JMcorina  04211410293D 1   1.00000     0.00000 
CORINA 3.49 0026  01.06.2011
 44 48  0  0  0  0  0  0  0  0999 V2000
   -0.0218    1.7577    0.0117 S   0  0  0  1  0  0  0  0  0  0  0  0
    2.1156    4.5425   -1.4047 S   0  0  0  1  0  0  0  0  0  0  0  0
   -2.6719   -3.4748    0.2780 O   0  0  0  1  0  0  0  0  0  0  0  0
   -1.0875   -0.8293    0.0080 N   0  0  0  1  0  0  0  0  0  0  0  0
    0.7287   -2.0073   -0.0195 N   0  0  0  1  0  0  0  0  0  0  0  0
    1.0707   -0.7686   -0.0127 N   0  0  0  1  0  0  0  0  0  0  0  0
    2.1028    4.2917    1.0627 N   0  0  0  1  0  0  0  0  0  0  0  0
   -2.4979   -0.4336    0.0233 C   0  0  0  1  0  0  0  0  0  0  0  0
   -0.5823   -2.1109   -0.0094 C   0  0  0  1  0  0  0  0  0  0  0  0
   -2.9704   -0.3128    1.4492 C   0  0  0  1  0  0  0  0  0  0  0  0
    0.0021   -0.0041    0.0020 C   0  0  0  1  0  0  0  0  0  0  0  0
   -1.3616   -3.3587   -0.0152 C   0  0  0  1  0  0  0  0  0  0  0  0
    1.7562    2.0963   -0.0035 C   0  0  0  1  0  0  0  0  0  0  0  0
   -2.8636    0.8951    2.1127 C   0  0  0  1  0  0  0  0  0  0  0  0
   -3.5157   -1.4085    2.0918 C   0  0  0  1  0  0  0  0  0  0  0  0
    1.9840    3.5860    0.0024 C   0  0  0  1  0  0  0  0  0  0  0  0
    2.3470    5.9903   -0.4296 C   0  0  0  1  0  0  0  0  0  0  0  0
    2.3037    5.6154    0.9181 C   0  0  0  1  0  0  0  0  0  0  0  0
   -0.8844   -4.5987   -0.3174 C   0  0  0  1  0  0  0  0  0  0  0  0
   -3.2969    1.0059    3.4207 C   0  0  0  1  0  0  0  0  0  0  0  0
   -3.9490   -1.2978    3.3998 C   0  0  0  1  0  0  0  0  0  0  0  0
   -3.8374   -0.0911    4.0650 C   0  0  0  1  0  0  0  0  0  0  0  0
    2.5467    7.3232   -0.7815 C   0  0  0  1  0  0  0  0  0  0  0  0
    2.4665    6.6136    1.8995 C   0  0  0  1  0  0  0  0  0  0  0  0
   -1.9677   -5.4904   -0.1963 C   0  0  0  1  0  0  0  0  0  0  0  0
   -3.0411   -4.7618    0.1694 C   0  0  0  1  0  0  0  0  0  0  0  0
    2.7023    8.2772    0.1990 C   0  0  0  1  0  0  0  0  0  0  0  0
    2.6608    7.9122    1.5370 C   0  0  0  1  0  0  0  0  0  0  0  0
   -2.6114    0.5267   -0.4796 H   0  0  0  1  0  0  0  0  0  0  0  0
   -3.0923   -1.1870   -0.4938 H   0  0  0  1  0  0  0  0  0  0  0  0
    2.2177    1.6547    0.8798 H   0  0  0  1  0  0  0  0  0  0  0  0
    2.2007    1.6643   -0.9001 H   0  0  0  1  0  0  0  0  0  0  0  0
   -2.4413    1.7523    1.6093 H   0  0  0  1  0  0  0  0  0  0  0  0
   -3.6035   -2.3511    1.5719 H   0  0  0  1  0  0  0  0  0  0  0  0
    0.1284   -4.8492   -0.5963 H   0  0  0  1  0  0  0  0  0  0  0  0
   -3.2128    1.9495    3.9393 H   0  0  0  1  0  0  0  0  0  0  0  0
   -4.3754   -2.1537    3.9017 H   0  0  0  1  0  0  0  0  0  0  0  0
   -4.1756   -0.0047    5.0871 H   0  0  0  1  0  0  0  0  0  0  0  0
    2.5798    7.6080   -1.8228 H   0  0  0  1  0  0  0  0  0  0  0  0
    2.4366    6.3474    2.9457 H   0  0  0  1  0  0  0  0  0  0  0  0
   -1.9431   -6.5569   -0.3647 H   0  0  0  1  0  0  0  0  0  0  0  0
   -4.0337   -5.1488    0.3463 H   0  0  0  1  0  0  0  0  0  0  0  0
    2.8575    9.3107   -0.0736 H   0  0  0  1  0  0  0  0  0  0  0  0
    2.7837    8.6666    2.3000 H   0  0  0  1  0  0  0  0  0  0  0  0
  1 11  1  0  0  0  0
  1 13  1  0  0  0  0
  2 16  4  0  0  0  0
  2 17  4  0  0  0  0
  3 12  4  0  0  0  0
  3 26  4  0  0  0  0
  4  8  1  0  0  0  0
  4  9  4  0  0  0  0
  4 11  4  0  0  0  0
  5  6  4  0  0  0  0
  5  9  4  0  0  0  0
  6 11  4  0  0  0  0
  7 16  4  0  0  0  0
  7 18  4  0  0  0  0
  8 10  1  0  0  0  0
  8 29  1  0  0  0  0
  8 30  1  0  0  0  0
  9 12  1  0  0  0  0
 10 14  4  0  0  0  0
 10 15  4  0  0  0  0
 12 19  4  0  0  0  0
 13 16  1  0  0  0  0
 13 31  1  0  0  0  0
 13 32  1  0  0  0  0
 14 20  4  0  0  0  0
 14 33  1  0  0  0  0
 15 21  4  0  0  0  0
 15 34  1  0  0  0  0
 17 18  4  0  0  0  0
 17 23  4  0  0  0  0
 18 24  4  0  0  0  0
 19 25  4  0  0  0  0
 19 35  1  0  0  0  0
 20 22  4  0  0  0  0
 20 36  1  0  0  0  0
 21 22  4  0  0  0  0
 21 37  1  0  0  0  0
 22 38  1  0  0  0  0
 23 27  4  0  0  0  0
 23 39  1  0  0  0  0
 24 28  4  0  0  0  0
 24 40  1  0  0  0  0
 25 26  4  0  0  0  0
 25 41  1  0  0  0  0
 26 42  1  0  0  0  0
 27 28  4  0  0  0  0
 27 43  1  0  0  0  0
 28 44  1  0  0  0  0
M  END
> <Activity>
0.01

> <Mapped(file=2032.csv.activities,property=Cached(PUBCHEM_COMPOUND_CID))>
100

> <MatchIndices>
171 

> <PUBCHEM_ATOM_DEF_STEREO_COUNT>
0

> <PUBCHEM_ATOM_UDEF_STEREO_COUNT>
0

> <PUBCHEM_BONDANNOTATIONS>
10  14  8
10  15  8
12  19  8
14  20  8
15  21  8
17  18  8
17  23  8
18  24  8
19  25  8
2  16  8
2  17  8
20  22  8
21  22  8
23  27  8
24  28  8
25  26  8
27  28  8
3  12  8
3  26  8
4  11  8
4  9  8
5  6  8
5  9  8
6  11  8
7  16  8
7  18  8

> <PUBCHEM_BOND_DEF_STEREO_COUNT>
0

> <PUBCHEM_BOND_UDEF_STEREO_COUNT>
0

> <PUBCHEM_CACTVS_COMPLEXITY>
507

> <PUBCHEM_CACTVS_HBOND_ACCEPTOR>
3

> <PUBCHEM_CACTVS_HBOND_DONOR>
0

> <PUBCHEM_CACTVS_ROTATABLE_BOND>
6

> <PUBCHEM_CACTVS_SUBSKEYS>
AAADceB7oABgAAAAAAAAAAAAAAAAAWLEgAAwYAAAAAAAAFgB/gAAHgQIAAAADAzl3wax1bcMFEiuA65y5AST+KtnKrhd2D2+bNiOLrLkvbuHOSjkyBP46YeYkQIOAAAAAAAAAQAAAAAAAAACAAAAAAAAAA==

> <PUBCHEM_CACTVS_TAUTO_COUNT>
1

> <PUBCHEM_CACTVS_TPSA>
110

> <PUBCHEM_COMPONENT_COUNT>
1

> <PUBCHEM_COMPOUND_CANONICALIZED>
1

> <PUBCHEM_COMPOUND_CID>
2386422

> <PUBCHEM_COORDINATE_TYPE>
1
5
255

> <PUBCHEM_EXACT_MASS>
404.076553

> <PUBCHEM_HEAVY_ATOM_COUNT>
28

> <PUBCHEM_ISOTOPIC_ATOM_COUNT>
0

> <PUBCHEM_IUPAC_CAS_NAME>
2-[[[5-(2-furanyl)-4-(phenylmethyl)-1,2,4-triazol-3-yl]thio]methyl]-1,3-benzothiazole

> <PUBCHEM_IUPAC_INCHI>
InChI=1S/C21H16N4OS2/c1-2-7-15(8-3-1)13-25-20(17-10-6-12-26-17)23-24-21(25)27-14-19-22-16-9-4-5-11-18(16)28-19/h1-12H,13-14H2

> <PUBCHEM_IUPAC_INCHIKEY>
CXJQOMGZPJXBQP-UHFFFAOYSA-N

> <PUBCHEM_IUPAC_NAME>
2-[[4-benzyl-5-(furan-2-yl)-1,2,4-triazol-3-yl]sulfanylmethyl]-1,3-benzothiazole

> <PUBCHEM_IUPAC_OPENEYE_NAME>
2-[[4-benzyl-5-(2-furyl)-1,2,4-triazol-3-yl]sulfanylmethyl]-1,3-benzothiazole

> <PUBCHEM_IUPAC_SYSTEMATIC_NAME>
2-[[5-(furan-2-yl)-4-(phenylmethyl)-1,2,4-triazol-3-yl]sulfanylmethyl]-1,3-benzothiazole

> <PUBCHEM_IUPAC_TRADITIONAL_NAME>
2-[[[4-benzyl-5-(2-furyl)-1,2,4-triazol-3-yl]thio]methyl]-1,3-benzothiazole

> <PUBCHEM_MOLECULAR_FORMULA>
C21H16N4OS2

> <PUBCHEM_MOLECULAR_WEIGHT>
404.50794

> <PUBCHEM_MONOISOTOPIC_WEIGHT>
404.076553

> <PUBCHEM_OPENEYE_CAN_SMILES>
C1=CC=C(C=C1)CN2C(=NN=C2SCC3=NC4=CC=CC=C4S3)C5=CC=CO5

> <PUBCHEM_OPENEYE_ISO_SMILES>
C1=CC=C(C=C1)CN2C(=NN=C2SCC3=NC4=CC=CC=C4S3)C5=CC=CO5

> <PUBCHEM_TOTAL_CHARGE>
0

> <PUBCHEM_XLOGP3_AA>
4.6

$$$$
Largest isolated from Written by BCL::WriteToMDL,2935588
JMcorina  04211410293D 1   1.00000     0.00000 
CORINA 3.49 0026  01.06.2011
 47 48  0  0  0  0  0  0  0  0999 V2000
   -0.0173    1.4248    0.0099 O   0  0  0  1  0  0  0  0  0  0  0  0
    0.0930    4.1770    0.0232 O   0  0  0  1  0  0  0  0  0  0  0  0
   -2.8280   -4.0619    0.0072 N   0  0  0  1  0  0  0  0  0  0  0  0
   -1.4126   -2.0635    0.0045 C   0  0  0  1  0  0  0  0  0  0  0  0
   -1.4333   -0.5336    0.0129 C   0  0  0  1  0  0  0  0  0  0  0  0
   -2.8479   -2.5931    0.0153 C   0  0  0  1  0  0  0  0  0  0  0  0
    0.0021   -0.0041    0.0020 C   0  0  0  1  0  0  0  0  0  0  0  0
   -4.1921   -4.6070    0.0173 C   0  0  0  1  0  0  0  0  0  0  0  0
   -4.1315   -6.1127    0.0087 C   0  0  0  1  0  0  0  0  0  0  0  0
    1.1859    2.0586    0.0018 C   0  0  0  1  0  0  0  0  0  0  0  0
    1.2416    3.4490    0.0087 C   0  0  0  1  0  0  0  0  0  0  0  0
   -4.0923   -6.8098    1.2018 C   0  0  0  1  0  0  0  0  0  0  0  0
   -4.1208   -6.7971   -1.1923 C   0  0  0  1  0  0  0  0  0  0  0  0
    2.3590    1.3213   -0.0076 C   0  0  0  1  0  0  0  0  0  0  0  0
    3.6366    3.3486   -0.0148 C   0  0  0  1  0  0  0  0  0  0  0  0
    2.4700    4.0901    0.0004 C   0  0  0  1  0  0  0  0  0  0  0  0
    3.5813    1.9672   -0.0159 C   0  0  0  1  0  0  0  0  0  0  0  0
   -4.0366   -8.1910    1.1938 C   0  0  0  1  0  0  0  0  0  0  0  0
   -4.0652   -8.1783   -1.2003 C   0  0  0  1  0  0  0  0  0  0  0  0
   -4.0206   -8.8751   -0.0072 C   0  0  0  1  0  0  0  0  0  0  0  0
    4.9717    4.0476   -0.0238 C   0  0  0  1  0  0  0  0  0  0  0  0
    0.2267    5.5997    0.0296 C   0  0  0  1  0  0  0  0  0  0  0  0
   -0.9024   -2.4150   -0.8923 H   0  0  0  1  0  0  0  0  0  0  0  0
   -0.8854   -2.4246    0.8875 H   0  0  0  1  0  0  0  0  0  0  0  0
   -1.9605   -0.1726   -0.8702 H   0  0  0  1  0  0  0  0  0  0  0  0
   -1.9435   -0.1821    0.9097 H   0  0  0  1  0  0  0  0  0  0  0  0
   -3.3751   -2.2320   -0.8677 H   0  0  0  1  0  0  0  0  0  0  0  0
   -3.3581   -2.2415    0.9121 H   0  0  0  1  0  0  0  0  0  0  0  0
    0.5123   -0.3556   -0.8948 H   0  0  0  1  0  0  0  0  0  0  0  0
    0.5293   -0.3651    0.8851 H   0  0  0  1  0  0  0  0  0  0  0  0
   -2.3045   -4.4121   -0.7810 H   0  0  0  1  0  0  0  0  0  0  0  0
   -4.7116   -4.2694    0.9142 H   0  0  0  1  0  0  0  0  0  0  0  0
   -4.7286   -4.2599   -0.8657 H   0  0  0  1  0  0  0  0  0  0  0  0
   -4.1047   -6.2752    2.1401 H   0  0  0  1  0  0  0  0  0  0  0  0
   -4.1563   -6.2527   -2.1244 H   0  0  0  1  0  0  0  0  0  0  0  0
    2.3186    0.2421   -0.0082 H   0  0  0  1  0  0  0  0  0  0  0  0
    2.5160    5.1691    0.0054 H   0  0  0  1  0  0  0  0  0  0  0  0
    4.4949    1.3913   -0.0233 H   0  0  0  1  0  0  0  0  0  0  0  0
   -4.0052   -8.7355    2.1260 H   0  0  0  1  0  0  0  0  0  0  0  0
   -4.0572   -8.7130   -2.1386 H   0  0  0  1  0  0  0  0  0  0  0  0
   -3.9768   -9.9542   -0.0134 H   0  0  0  1  0  0  0  0  0  0  0  0
    5.3034    4.2106    1.0016 H   0  0  0  1  0  0  0  0  0  0  0  0
    5.7014    3.4304   -0.5480 H   0  0  0  1  0  0  0  0  0  0  0  0
    4.8759    5.0073   -0.5316 H   0  0  0  1  0  0  0  0  0  0  0  0
    0.7641    5.9182   -0.8637 H   0  0  0  1  0  0  0  0  0  0  0  0
   -0.7624    6.0576    0.0411 H   0  0  0  1  0  0  0  0  0  0  0  0
    0.7805    5.9087    0.9162 H   0  0  0  1  0  0  0  0  0  0  0  0
  1  7  1  0  0  0  0
  1 10  1  0  0  0  0
  2 11  1  0  0  0  0
  2 22  1  0  0  0  0
  3  6  1  0  0  0  0
  3  8  1  0  0  0  0
  3 31  1  0  0  0  0
  4  5  1  0  0  0  0
  4  6  1  0  0  0  0
  4 23  1  0  0  0  0
  4 24  1  0  0  0  0
  5  7  1  0  0  0  0
  5 25  1  0  0  0  0
  5 26  1  0  0  0  0
  6 27  1  0  0  0  0
  6 28  1  0  0  0  0
  7 29  1  0  0  0  0
  7 30  1  0  0  0  0
  8  9  1  0  0  0  0
  8 32  1  0  0  0  0
  8 33  1  0  0  0  0
  9 12  4  0  0  0  0
  9 13  4  0  0  0  0
 10 11  4  0  0  0  0
 10 14  4  0  0  0  0
 11 16  4  0  0  0  0
 12 18  4  0  0  0  0
 12 34  1  0  0  0  0
 13 19  4  0  0  0  0
 13 35  1  0  0  0  0
 14 17  4  0  0  0  0
 14 36  1  0  0  0  0
 15 16  4  0  0  0  0
 15 17  4  0  0  0  0
 15 21  1  0  0  0  0
 16 37  1  0  0  0  0
 17 38  1  0  0  0  0
 18 20  4  0  0  0  0
 18 39  1  0  0  0  0
 19 20  4  0  0  0  0
 19 40  1  0  0  0  0
 20 41  1  0  0  0  0
 21 42  1  0  0  0  0
 21 43  1  0  0  0  0
 21 44  1  0  0  0  0
 22 45  1  0  0  0  0
 22 46  1  0  0  0  0
 22 47  1  0  0  0  0
M  END
> <Activity>
0.01

> <Mapped(file=2032.csv.activities,property=Cached(PUBCHEM_COMPOUND_CID))>
100

> <MatchIndices>
96 

> <PUBCHEM_ATOM_DEF_STEREO_COUNT>
0

> <PUBCHEM_ATOM_UDEF_STEREO_COUNT>
0

> <PUBCHEM_BONDANNOTATIONS>
13  16  8
13  17  8
14  15  8
14  18  8
15  20  8
16  22  8
17  23  8
18  21  8
19  20  8
19  21  8
22  24  8
23  24  8

> <PUBCHEM_BOND_DEF_STEREO_COUNT>
0

> <PUBCHEM_BOND_UDEF_STEREO_COUNT>
0

> <PUBCHEM_CACTVS_COMPLEXITY>
350

> <PUBCHEM_CACTVS_HBOND_ACCEPTOR>
7

> <PUBCHEM_CACTVS_HBOND_DONOR>
3

> <PUBCHEM_CACTVS_ROTATABLE_BOND>
10

> <PUBCHEM_CACTVS_SUBSKEYS>
AAADceB6OAAAAAAAAAAAAAAAAAAAAAAAAAAwYAAAAAAAAAABQAAAHgAQCAAADAThmAYyDoLABgCIAiDSCAKCCAAgIAAIiIBOjIgNJiKEsRuGOCrk0BGLqAewwBAOIAABAAAAQABAAAIAAACAAAAAAAAAAA==

> <PUBCHEM_CACTVS_TAUTO_COUNT>
1

> <PUBCHEM_CACTVS_TPSA>
105

> <PUBCHEM_COMPONENT_COUNT>
2

> <PUBCHEM_COMPOUND_CANONICALIZED>
1

> <PUBCHEM_COMPOUND_CID>
2935588

> <PUBCHEM_COORDINATE_TYPE>
1
5
255

> <PUBCHEM_EXACT_MASS>
389.183838

> <PUBCHEM_HEAVY_ATOM_COUNT>
28

> <PUBCHEM_ISOTOPIC_ATOM_COUNT>
0

> <PUBCHEM_IUPAC_CAS_NAME>
4-(2-methoxy-4-methylphenoxy)-N-(phenylmethyl)-1-butanamine; oxalic acid

> <PUBCHEM_IUPAC_INCHI>
InChI=1S/C19H25NO2.C2H2O4/c1-16-10-11-18(19(14-16)21-2)22-13-7-6-12-20-15-17-8-4-3-5-9-17;3-1(4)2(5)6/h3-5,8-11,14,20H,6-7,12-13,15H2,1-2H3;(H,3,4)(H,5,6)

> <PUBCHEM_IUPAC_INCHIKEY>
IKRYGEAVYVBCBH-UHFFFAOYSA-N

> <PUBCHEM_IUPAC_NAME>
N-benzyl-4-(2-methoxy-4-methylphenoxy)butan-1-amine; oxalic acid

> <PUBCHEM_IUPAC_OPENEYE_NAME>
N-benzyl-4-(2-methoxy-4-methyl-phenoxy)butan-1-amine; oxalic acid

> <PUBCHEM_IUPAC_SYSTEMATIC_NAME>
ethanedioic acid; 4-(2-methoxy-4-methyl-phenoxy)-N-(phenylmethyl)butan-1-amine

> <PUBCHEM_IUPAC_TRADITIONAL_NAME>
benzyl-[4-(2-methoxy-4-methyl-phenoxy)butyl]amine; oxalic acid

> <PUBCHEM_MOLECULAR_FORMULA>
C21H27NO6

> <PUBCHEM_MOLECULAR_WEIGHT>
389.44218

> <PUBCHEM_MONOISOTOPIC_WEIGHT>
389.183838

> <PUBCHEM_OPENEYE_CAN_SMILES>
CC1=CC(=C(C=C1)OCCCCNCC2=CC=CC=C2)OC.C(=O)(C(=O)O)O

> <PUBCHEM_OPENEYE_ISO_SMILES>
CC1=CC(=C(C=C1)OCCCCNCC2=CC=CC=C2)OC.C(=O)(C(=O)O)O

> <PUBCHEM_TOTAL_CHARGE>
0

$$$$
Largest isolated from Written by BCL::WriteToMDL,20118
JMcorina  04211410293D 1   1.00000     0.00000 
CORINA 3.49 0026  01.06.2011
 37 38  0  0  0  0  0  0  0  0999 V2000
   -0.0173    1.4248    0.0099 O   0  0  0  1  0  0  0  0  0  0  0  0
    0.0077   -0.0109   -2.4469 N   0  0  0  1  0  0  0  0  0  0  0  0
    0.7182   -0.4975   -1.2568 C   0  0  0  1  0  0  0  0  0  0  0  0
    0.0021   -0.0041    0.0020 C   0  0  0  1  0  0  0  0  0  0  0  0
    0.6685   -0.4662   -3.6774 C   0  0  0  1  0  0  0  0  0  0  0  0
   -0.0985    0.0592   -4.8925 C   0  0  0  1  0  0  0  0  0  0  0  0
    0.7309   -0.5033    1.2229 C   0  0  0  1  0  0  0  0  0  0  0  0
    0.5793   -0.4079   -6.1548 C   0  0  0  1  0  0  0  0  0  0  0  0
    0.3203   -1.6674    1.8452 C   0  0  0  1  0  0  0  0  0  0  0  0
    1.8136    0.1998    1.7172 C   0  0  0  1  0  0  0  0  0  0  0  0
    0.2124   -1.6089   -6.7326 C   0  0  0  1  0  0  0  0  0  0  0  0
    1.5641    0.3673   -6.7380 C   0  0  0  1  0  0  0  0  0  0  0  0
    0.9889   -2.1253    2.9651 C   0  0  0  1  0  0  0  0  0  0  0  0
    2.4822   -0.2581    2.8371 C   0  0  0  1  0  0  0  0  0  0  0  0
    0.8342   -2.0374   -7.8904 C   0  0  0  1  0  0  0  0  0  0  0  0
    2.1859   -0.0612   -7.8959 C   0  0  0  1  0  0  0  0  0  0  0  0
    2.0683   -1.4193    3.4625 C   0  0  0  1  0  0  0  0  0  0  0  0
    1.8226   -1.2647   -8.4708 C   0  0  0  1  0  0  0  0  0  0  0  0
    0.7330   -1.5874   -1.2628 H   0  0  0  1  0  0  0  0  0  0  0  0
    1.7408   -0.1202   -1.2645 H   0  0  0  1  0  0  0  0  0  0  0  0
   -1.0205   -0.3814    0.0098 H   0  0  0  1  0  0  0  0  0  0  0  0
    1.6907   -0.0887   -3.7019 H   0  0  0  1  0  0  0  0  0  0  0  0
    0.6829   -1.5559   -3.7001 H   0  0  0  1  0  0  0  0  0  0  0  0
   -1.1207   -0.3183   -4.8680 H   0  0  0  1  0  0  0  0  0  0  0  0
   -0.1129    1.1489   -4.8697 H   0  0  0  1  0  0  0  0  0  0  0  0
   -0.9607   -0.2935   -2.4306 H   0  0  0  1  0  0  0  0  0  0  0  0
   -0.5230   -2.2189    1.4566 H   0  0  0  1  0  0  0  0  0  0  0  0
    2.1374    1.1067    1.2282 H   0  0  0  1  0  0  0  0  0  0  0  0
   -0.5598   -2.2126   -6.2792 H   0  0  0  1  0  0  0  0  0  0  0  0
    1.8474    1.3079   -6.2893 H   0  0  0  1  0  0  0  0  0  0  0  0
    0.8606    1.8301    0.0037 H   0  0  0  1  0  0  0  0  0  0  0  0
    0.6677   -3.0343    3.4517 H   0  0  0  1  0  0  0  0  0  0  0  0
    3.3283    0.2911    3.2231 H   0  0  0  1  0  0  0  0  0  0  0  0
    0.5480   -2.9761   -8.3414 H   0  0  0  1  0  0  0  0  0  0  0  0
    2.9550    0.5447   -8.3518 H   0  0  0  1  0  0  0  0  0  0  0  0
    2.5904   -1.7769    4.3377 H   0  0  0  1  0  0  0  0  0  0  0  0
    2.3087   -1.5996   -9.3752 H   0  0  0  1  0  0  0  0  0  0  0  0
  1  4  1  0  0  0  0
  1 31  1  0  0  0  0
  2  3  1  0  0  0  0
  2  5  1  0  0  0  0
  2 26  1  0  0  0  0
  3  4  1  0  0  0  0
  3 19  1  0  0  0  0
  3 20  1  0  0  0  0
  4  7  1  0  0  0  0
  4 21  1  0  0  0  0
  5  6  1  0  0  0  0
  5 22  1  0  0  0  0
  5 23  1  0  0  0  0
  6  8  1  0  0  0  0
  6 24  1  0  0  0  0
  6 25  1  0  0  0  0
  7  9  4  0  0  0  0
  7 10  4  0  0  0  0
  8 11  4  0  0  0  0
  8 12  4  0  0  0  0
  9 13  4  0  0  0  0
  9 27  1  0  0  0  0
 10 14  4  0  0  0  0
 10 28  1  0  0  0  0
 11 15  4  0  0  0  0
 11 29  1  0  0  0  0
 12 16  4  0  0  0  0
 12 30  1  0  0  0  0
 13 17  4  0  0  0  0
 13 32  1  0  0  0  0
 14 17  4  0  0  0  0
 14 33  1  0  0  0  0
 15 18  4  0  0  0  0
 15 34  1  0  0  0  0
 16 18  4  0  0  0  0
 16 35  1  0  0  0  0
 17 36  1  0  0  0  0
 18 37  1  0  0  0  0
M  END
> <Activity>
0.01

> <Mapped(file=2032.csv.activities,property=Cached(PUBCHEM_COMPOUND_CID))>
100

> <MatchIndices>
56 

> <PUBCHEM_ATOM_DEF_STEREO_COUNT>
0

> <PUBCHEM_ATOM_UDEF_STEREO_COUNT>
1

> <PUBCHEM_BONDANNOTATIONS>
10  14  8
11  15  8
12  16  8
13  17  8
14  17  8
15  18  8
16  18  8
4  21  3
7  10  8
7  9  8
8  11  8
8  12  8
9  13  8

> <PUBCHEM_BOND_DEF_STEREO_COUNT>
0

> <PUBCHEM_BOND_UDEF_STEREO_COUNT>
0

> <PUBCHEM_CACTVS_COMPLEXITY>
207

> <PUBCHEM_CACTVS_HBOND_ACCEPTOR>
2

> <PUBCHEM_CACTVS_HBOND_DONOR>
2

> <PUBCHEM_CACTVS_ROTATABLE_BOND>
6

> <PUBCHEM_CACTVS_SUBSKEYS>
AAADceB6IAAAAAAAAAAAAAAAAAAAAAAAAAAwYAAAAAAAAAABQAAAHgAQCAAADBThmAYwAILAAgCAAiBCAAACAAAgAAAIiIAICIgKNiKAkRGEcAAk0AGYmAeQwKAOAAAAAAAAAAAAAAAAAAAAAAAAAAAAAA==

> <PUBCHEM_CACTVS_TAUTO_COUNT>
1

> <PUBCHEM_CACTVS_TPSA>
32.3

> <PUBCHEM_COMPONENT_COUNT>
1

> <PUBCHEM_COMPOUND_CANONICALIZED>
1

> <PUBCHEM_COMPOUND_CID>
20118

> <PUBCHEM_COORDINATE_TYPE>
1
5
255

> <PUBCHEM_EXACT_MASS>
241.146664

> <PUBCHEM_HEAVY_ATOM_COUNT>
18

> <PUBCHEM_ISOTOPIC_ATOM_COUNT>
0

> <PUBCHEM_IUPAC_CAS_NAME>
1-phenyl-2-(2-phenylethylamino)ethanol

> <PUBCHEM_IUPAC_INCHI>
InChI=1S/C16H19NO/c18-16(15-9-5-2-6-10-15)13-17-12-11-14-7-3-1-4-8-14/h1-10,16-18H,11-13H2

> <PUBCHEM_IUPAC_INCHIKEY>
LXTNZWGUMORTKT-UHFFFAOYSA-N

> <PUBCHEM_IUPAC_NAME>
1-phenyl-2-(2-phenylethylamino)ethanol

> <PUBCHEM_IUPAC_OPENEYE_NAME>
1-phenyl-2-(2-phenylethylamino)ethanol

> <PUBCHEM_IUPAC_SYSTEMATIC_NAME>
1-phenyl-2-(2-phenylethylamino)ethanol

> <PUBCHEM_IUPAC_TRADITIONAL_NAME>
2-(phenethylamino)-1-phenyl-ethanol

> <PUBCHEM_MOLECULAR_FORMULA>
C16H19NO

> <PUBCHEM_MOLECULAR_WEIGHT>
241.32816

> <PUBCHEM_MONOISOTOPIC_WEIGHT>
241.146664

> <PUBCHEM_OPENEYE_CAN_SMILES>
C1=CC=C(C=C1)CCNCC(C2=CC=CC=C2)O

> <PUBCHEM_OPENEYE_ISO_SMILES>
C1=CC=C(C=C1)CCNCC(C2=CC=CC=C2)O

> <PUBCHEM_TOTAL_CHARGE>
0

> <PUBCHEM_XLOGP3_AA>
2.6

$$$$
Largest isolated from Written by BCL::WriteToMDL,6602913
JMcorina  04211410293D 1   1.00000     0.00000 
CORINA 3.49 0026  01.06.2011
 33 35  0  0  0  0  0  0  0  0999 V2000
    6.0345   17.6662    6.8627 O   0  0  0  1  0  0  0  0  0  0  0  0
    6.5741   12.1655    6.7468 N   0  0  0  1  0  0  0  0  0  0  0  0
   10.2491   10.4396    7.6346 N   0  0  0  1  0  0  0  0  0  0  0  0
    7.9241   10.1785    7.1744 C   0  0  0  1  0  0  0  0  0  0  0  0
    7.7970   11.5825    7.0424 C   0  0  0  1  0  0  0  0  0  0  0  0
    9.1939    9.6318    7.4778 C   0  0  0  1  0  0  0  0  0  0  0  0
    6.4374   13.5580    6.7762 C   0  0  0  1  0  0  0  0  0  0  0  0
    6.8228    9.3278    7.0109 C   0  0  0  1  0  0  0  0  0  0  0  0
    8.9339   12.3558    7.2187 C   0  0  0  1  0  0  0  0  0  0  0  0
    9.3235    8.2388    7.6094 C   0  0  0  1  0  0  0  0  0  0  0  0
    5.7042   14.2052    5.7901 C   0  0  0  1  0  0  0  0  0  0  0  0
    7.0301   14.2930    7.7947 C   0  0  0  1  0  0  0  0  0  0  0  0
    6.9856    7.9813    7.1454 C   0  0  0  1  0  0  0  0  0  0  0  0
   10.1437   11.7425    7.5143 C   0  0  0  1  0  0  0  0  0  0  0  0
    8.2331    7.4401    7.4442 C   0  0  0  1  0  0  0  0  0  0  0  0
    6.1669   16.3131    6.8344 C   0  0  0  1  0  0  0  0  0  0  0  0
    5.5698   15.5792    5.8199 C   0  0  0  1  0  0  0  0  0  0  0  0
    6.8947   15.6670    7.8229 C   0  0  0  1  0  0  0  0  0  0  0  0
    6.6756   18.3584    7.9359 C   0  0  0  1  0  0  0  0  0  0  0  0
    5.8134   11.6082    6.5196 H   0  0  0  1  0  0  0  0  0  0  0  0
    5.8503    9.7368    6.7799 H   0  0  0  1  0  0  0  0  0  0  0  0
    8.8788   13.4304    7.1264 H   0  0  0  1  0  0  0  0  0  0  0  0
   10.2844    7.8033    7.8403 H   0  0  0  1  0  0  0  0  0  0  0  0
    5.2395   13.6340    5.0000 H   0  0  0  1  0  0  0  0  0  0  0  0
    7.5964   13.7901    8.5647 H   0  0  0  1  0  0  0  0  0  0  0  0
    6.1364    7.3262    7.0192 H   0  0  0  1  0  0  0  0  0  0  0  0
   11.0231   12.3547    7.6496 H   0  0  0  1  0  0  0  0  0  0  0  0
    8.3376    6.3700    7.5463 H   0  0  0  1  0  0  0  0  0  0  0  0
    5.0000   16.0827    5.0530 H   0  0  0  1  0  0  0  0  0  0  0  0
    7.3552   16.2387    8.6151 H   0  0  0  1  0  0  0  0  0  0  0  0
    6.2758   18.0051    8.8864 H   0  0  0  1  0  0  0  0  0  0  0  0
    7.7486   18.1699    7.9004 H   0  0  0  1  0  0  0  0  0  0  0  0
    6.4913   19.4284    7.8396 H   0  0  0  1  0  0  0  0  0  0  0  0
  1 16  1  0  0  0  0
  1 19  1  0  0  0  0
  2  5  1  0  0  0  0
  2  7  1  0  0  0  0
  2 20  1  0  0  0  0
  3  6  4  0  0  0  0
  3 14  4  0  0  0  0
  4  5  4  0  0  0  0
  4  6  4  0  0  0  0
  4  8  4  0  0  0  0
  5  9  4  0  0  0  0
  6 10  4  0  0  0  0
  7 11  4  0  0  0  0
  7 12  4  0  0  0  0
  8 13  4  0  0  0  0
  8 21  1  0  0  0  0
  9 14  4  0  0  0  0
  9 22  1  0  0  0  0
 10 15  4  0  0  0  0
 10 23  1  0  0  0  0
 11 17  4  0  0  0  0
 11 24  1  0  0  0  0
 12 18  4  0  0  0  0
 12 25  1  0  0  0  0
 13 15  4  0  0  0  0
 13 26  1  0  0  0  0
 14 27  1  0  0  0  0
 15 28  1  0  0  0  0
 16 17  4  0  0  0  0
 16 18  4  0  0  0  0
 17 29  1  0  0  0  0
 18 30  1  0  0  0  0
 19 31  1  0  0  0  0
 19 32  1  0  0  0  0
 19 33  1  0  0  0  0
M  END
> <Activity>
0.01

> <Mapped(file=2032.csv.activities,property=Cached(PUBCHEM_COMPOUND_CID))>
100

> <MatchIndices>
5 

> <PUBCHEM_ATOM_DEF_STEREO_COUNT>
0

> <PUBCHEM_ATOM_UDEF_STEREO_COUNT>
0

> <PUBCHEM_BONDANNOTATIONS>
10  15  8
11  16  8
12  18  8
13  19  8
14  16  8
17  18  8
17  19  8
4  15  8
4  7  8
5  6  8
5  7  8
5  9  8
6  10  8
7  11  8
8  12  8
8  13  8
9  14  8

> <PUBCHEM_BOND_DEF_STEREO_COUNT>
0

> <PUBCHEM_BOND_UDEF_STEREO_COUNT>
0

> <PUBCHEM_CACTVS_COMPLEXITY>
276

> <PUBCHEM_CACTVS_HBOND_ACCEPTOR>
3

> <PUBCHEM_CACTVS_HBOND_DONOR>
2

> <PUBCHEM_CACTVS_ROTATABLE_BOND>
3

> <PUBCHEM_CACTVS_SUBSKEYS>
AAADccB7IAAEAAAAAAAAAAAAAAAAAAAAAAA8YIAAAAAAAACx9AAAHgAQAAAADAzBngY+xvLIFACgAzRnRACCiCAxIiAI2CA+bJgMJuLE8duENChk0BHI6AewwIAOAEAAAAACAAAAgAAAAAQAAAAAAAAAAA==

> <PUBCHEM_CACTVS_TAUTO_COUNT>
3

> <PUBCHEM_CACTVS_TPSA>
34.2

> <PUBCHEM_COMPONENT_COUNT>
2

> <PUBCHEM_COMPOUND_CANONICALIZED>
1

> <PUBCHEM_COMPOUND_CID>
6602913

> <PUBCHEM_COORDINATE_TYPE>
1
5
255

> <PUBCHEM_EXACT_MASS>
286.087291

> <PUBCHEM_HEAVY_ATOM_COUNT>
20

> <PUBCHEM_ISOTOPIC_ATOM_COUNT>
0

> <PUBCHEM_IUPAC_CAS_NAME>
N-(4-methoxyphenyl)-4-quinolinamine hydrochloride

> <PUBCHEM_IUPAC_INCHI>
InChI=1S/C16H14N2O.ClH/c1-19-13-8-6-12(7-9-13)18-16-10-11-17-15-5-3-2-4-14(15)16;/h2-11H,1H3,(H,17,18);1H

> <PUBCHEM_IUPAC_INCHIKEY>
ZBFCUPKYLZLALK-UHFFFAOYSA-N

> <PUBCHEM_IUPAC_NAME>
N-(4-methoxyphenyl)quinolin-4-amine hydrochloride

> <PUBCHEM_IUPAC_OPENEYE_NAME>
N-(4-methoxyphenyl)quinolin-4-amine hydrochloride

> <PUBCHEM_IUPAC_SYSTEMATIC_NAME>
N-(4-methoxyphenyl)quinolin-4-amine hydrochloride

> <PUBCHEM_IUPAC_TRADITIONAL_NAME>
(4-methoxyphenyl)-(4-quinolyl)amine hydrochloride

> <PUBCHEM_MOLECULAR_FORMULA>
C16H15ClN2O

> <PUBCHEM_MOLECULAR_WEIGHT>
286.7561

> <PUBCHEM_MONOISOTOPIC_WEIGHT>
286.087291

> <PUBCHEM_OPENEYE_CAN_SMILES>
COC1=CC=C(C=C1)NC2=CC=NC3=CC=CC=C32.Cl

> <PUBCHEM_OPENEYE_ISO_SMILES>
COC1=CC=C(C=C1)NC2=CC=NC3=CC=CC=C32.Cl

> <PUBCHEM_TOTAL_CHARGE>
0

$$$$
Largest isolated from Written by BCL::WriteToMDL,2984034
JMcorina  04211410293D 1   1.00000     0.00000 
CORINA 3.49 0026  01.06.2011
 40 41  0  0  0  0  0  0  0  0999 V2000
    0.0633   -4.5065   -0.0117 Cl  0  0  0  1  0  0  0  0  0  0  0  0
   -9.3086    4.4192   -2.8626 F   0  0  0  1  0  0  0  0  0  0  0  0
   -0.0164    1.3550    0.0095 O   0  0  0  1  0  0  0  0  0  0  0  0
   -2.8289    0.4763   -1.3309 N   0  0  0  1  0  0  0  0  0  0  0  0
   -4.1083    1.1979   -1.3525 C   0  0  0  1  0  0  0  0  0  0  0  0
   -4.4110    1.6569   -2.7802 C   0  0  0  1  0  0  0  0  0  0  0  0
   -2.5050    0.0195    0.0271 C   0  0  0  1  0  0  0  0  0  0  0  0
   -1.1890   -0.7147    0.0096 C   0  0  0  1  0  0  0  0  0  0  0  0
   -5.7235    2.3971   -2.8023 C   0  0  0  1  0  0  0  0  0  0  0  0
    0.0021   -0.0041    0.0020 C   0  0  0  1  0  0  0  0  0  0  0  0
   -1.1682   -2.0962    0.0068 C   0  0  0  1  0  0  0  0  0  0  0  0
   -5.7483    3.7651   -2.6040 C   0  0  0  1  0  0  0  0  0  0  0  0
   -6.9011    1.7086   -3.0265 C   0  0  0  1  0  0  0  0  0  0  0  0
    1.2124   -0.6822   -0.0136 C   0  0  0  1  0  0  0  0  0  0  0  0
    0.0396   -2.7707   -0.0088 C   0  0  0  1  0  0  0  0  0  0  0  0
    1.2290   -2.0633   -0.0217 C   0  0  0  1  0  0  0  0  0  0  0  0
   -6.9513    4.4450   -2.6240 C   0  0  0  1  0  0  0  0  0  0  0  0
   -8.1053    2.3864   -3.0475 C   0  0  0  1  0  0  0  0  0  0  0  0
    1.2479    2.0210    0.0010 C   0  0  0  1  0  0  0  0  0  0  0  0
   -8.1320    3.7556   -2.8432 C   0  0  0  1  0  0  0  0  0  0  0  0
    1.0269    3.5349    0.0112 C   0  0  0  1  0  0  0  0  0  0  0  0
   -4.9037    0.5376   -1.0068 H   0  0  0  1  0  0  0  0  0  0  0  0
   -4.0466    2.0665   -0.6969 H   0  0  0  1  0  0  0  0  0  0  0  0
   -3.6156    2.3171   -3.1259 H   0  0  0  1  0  0  0  0  0  0  0  0
   -4.4728    0.7882   -3.4358 H   0  0  0  1  0  0  0  0  0  0  0  0
   -2.4321    0.8799    0.6922 H   0  0  0  1  0  0  0  0  0  0  0  0
   -3.2892   -0.6490    0.3824 H   0  0  0  1  0  0  0  0  0  0  0  0
   -2.8387   -0.2965   -1.9797 H   0  0  0  1  0  0  0  0  0  0  0  0
   -2.0954   -2.6499    0.0172 H   0  0  0  1  0  0  0  0  0  0  0  0
   -4.8273    4.3025   -2.4330 H   0  0  0  1  0  0  0  0  0  0  0  0
   -6.8800    0.6406   -3.1858 H   0  0  0  1  0  0  0  0  0  0  0  0
    2.1408   -0.1306   -0.0199 H   0  0  0  1  0  0  0  0  0  0  0  0
    2.1709   -2.5916   -0.0342 H   0  0  0  1  0  0  0  0  0  0  0  0
   -6.9706    5.5135   -2.4683 H   0  0  0  1  0  0  0  0  0  0  0  0
   -9.0252    1.8483   -3.2223 H   0  0  0  1  0  0  0  0  0  0  0  0
    1.8173    1.7310    0.8840 H   0  0  0  1  0  0  0  0  0  0  0  0
    1.8003    1.7405   -0.8958 H   0  0  0  1  0  0  0  0  0  0  0  0
    0.4575    3.8250   -0.8718 H   0  0  0  1  0  0  0  0  0  0  0  0
    0.4745    3.8154    0.9081 H   0  0  0  1  0  0  0  0  0  0  0  0
    1.9913    4.0430    0.0048 H   0  0  0  1  0  0  0  0  0  0  0  0
  1 15  1  0  0  0  0
  2 20  1  0  0  0  0
  3 10  1  0  0  0  0
  3 19  1  0  0  0  0
  4  5  1  0  0  0  0
  4  7  1  0  0  0  0
  4 28  1  0  0  0  0
  5  6  1  0  0  0  0
  5 22  1  0  0  0  0
  5 23  1  0  0  0  0
  6  9  1  0  0  0  0
  6 24  1  0  0  0  0
  6 25  1  0  0  0  0
  7  8  1  0  0  0  0
  7 26  1  0  0  0  0
  7 27  1  0  0  0  0
  8 10  4  0  0  0  0
  8 11  4  0  0  0  0
  9 12  4  0  0  0  0
  9 13  4  0  0  0  0
 10 14  4  0  0  0  0
 11 15  4  0  0  0  0
 11 29  1  0  0  0  0
 12 17  4  0  0  0  0
 12 30  1  0  0  0  0
 13 18  4  0  0  0  0
 13 31  1  0  0  0  0
 14 16  4  0  0  0  0
 14 32  1  0  0  0  0
 15 16  4  0  0  0  0
 16 33  1  0  0  0  0
 17 20  4  0  0  0  0
 17 34  1  0  0  0  0
 18 20  4  0  0  0  0
 18 35  1  0  0  0  0
 19 21  1  0  0  0  0
 19 36  1  0  0  0  0
 19 37  1  0  0  0  0
 21 38  1  0  0  0  0
 21 39  1  0  0  0  0
 21 40  1  0  0  0  0
M  END
> <Activity>
0.01

> <Mapped(file=2032.csv.activities,property=Cached(PUBCHEM_COMPOUND_CID))>
100

> <MatchIndices>
38 

> <PUBCHEM_ATOM_DEF_STEREO_COUNT>
0

> <PUBCHEM_ATOM_UDEF_STEREO_COUNT>
0

> <PUBCHEM_BONDANNOTATIONS>
10  13  8
10  14  8
11  15  8
12  16  8
13  18  8
14  19  8
15  17  8
16  17  8
18  21  8
19  21  8
9  11  8
9  12  8

> <PUBCHEM_BOND_DEF_STEREO_COUNT>
0

> <PUBCHEM_BOND_UDEF_STEREO_COUNT>
0

> <PUBCHEM_CACTVS_COMPLEXITY>
284

> <PUBCHEM_CACTVS_HBOND_ACCEPTOR>
3

> <PUBCHEM_CACTVS_HBOND_DONOR>
2

> <PUBCHEM_CACTVS_ROTATABLE_BOND>
7

> <PUBCHEM_CACTVS_SUBSKEYS>
AAADceB6IQAGAAAAAAAAAAAAAAAAAAAAAAAwYAAAAAAAAAABQAAAHwIQAAAADAbhmC4yBoLABACAAiBCAACCCAAgJQAIiIAODogMJiKFsxuGOCjm0BGIqAeQwKAOACAAIAAIAAAAQABAABAAAAAAAAAAAA==

> <PUBCHEM_CACTVS_TAUTO_COUNT>
1

> <PUBCHEM_CACTVS_TPSA>
21.3

> <PUBCHEM_COMPONENT_COUNT>
2

> <PUBCHEM_COMPOUND_CANONICALIZED>
1

> <PUBCHEM_COMPOUND_CID>
2984034

> <PUBCHEM_COORDINATE_TYPE>
1
5
255

> <PUBCHEM_EXACT_MASS>
343.090598

> <PUBCHEM_HEAVY_ATOM_COUNT>
22

> <PUBCHEM_ISOTOPIC_ATOM_COUNT>
0

> <PUBCHEM_IUPAC_CAS_NAME>
N-[(5-chloro-2-ethoxyphenyl)methyl]-2-(4-fluorophenyl)ethanamine hydrochloride

> <PUBCHEM_IUPAC_INCHI>
InChI=1S/C17H19ClFNO.ClH/c1-2-21-17-8-5-15(18)11-14(17)12-20-10-9-13-3-6-16(19)7-4-13;/h3-8,11,20H,2,9-10,12H2,1H3;1H

> <PUBCHEM_IUPAC_INCHIKEY>
DVKMKOFVBKHUNE-UHFFFAOYSA-N

> <PUBCHEM_IUPAC_NAME>
N-[(5-chloro-2-ethoxyphenyl)methyl]-2-(4-fluorophenyl)ethanamine hydrochloride

> <PUBCHEM_IUPAC_OPENEYE_NAME>
N-[(5-chloro-2-ethoxy-phenyl)methyl]-2-(4-fluorophenyl)ethanamine hydrochloride

> <PUBCHEM_IUPAC_SYSTEMATIC_NAME>
N-[(5-chloranyl-2-ethoxy-phenyl)methyl]-2-(4-fluorophenyl)ethanamine hydrochloride

> <PUBCHEM_IUPAC_TRADITIONAL_NAME>
(5-chloro-2-ethoxy-benzyl)-[2-(4-fluorophenyl)ethyl]amine hydrochloride

> <PUBCHEM_MOLECULAR_FORMULA>
C17H20Cl2FNO

> <PUBCHEM_MOLECULAR_WEIGHT>
344.251203

> <PUBCHEM_MONOISOTOPIC_WEIGHT>
343.090598

> <PUBCHEM_OPENEYE_CAN_SMILES>
CCOC1=C(C=C(C=C1)Cl)CNCCC2=CC=C(C=C2)F.Cl

> <PUBCHEM_OPENEYE_ISO_SMILES>
CCOC1=C(C=C(C=C1)Cl)CNCCC2=CC=C(C=C2)F.Cl

> <PUBCHEM_TOTAL_CHARGE>
0

$$$$
Largest isolated from Written by BCL::WriteToMDL,801116
JMcorina  04211410293D 1   1.00000     0.00000 
CORINA 3.49 0026  01.06.2011
 35 36  0  0  0  0  0  0  0  0999 V2000
   -0.5204    4.4440    0.6283 Cl  0  0  0  1  0  0  0  0  0  0  0  0
   -2.7790    0.0870    4.4837 Cl  0  0  0  1  0  0  0  0  0  0  0  0
   -0.0172    1.4168    0.0098 S   0  0  0  1  0  0  0  0  0  0  0  0
    0.0021   -0.0041    0.0020 O   0  0  0  1  0  0  0  0  0  0  0  0
    1.1617    2.2101    0.0028 O   0  0  0  1  0  0  0  0  0  0  0  0
   -3.0683    3.0132    4.7873 O   0  0  0  1  0  0  0  0  0  0  0  0
   -0.9002    1.8797   -1.3124 N   0  0  0  1  0  0  0  0  0  0  0  0
   -2.4874    2.0057   -2.7690 N   0  0  0  1  0  0  0  0  0  0  0  0
   -2.1095    1.4012   -1.6759 C   0  0  0  1  0  0  0  0  0  0  0  0
   -0.9297    1.8941    1.4396 C   0  0  0  1  0  0  0  0  0  0  0  0
   -0.5433    2.8232   -2.2377 C   0  0  0  1  0  0  0  0  0  0  0  0
   -2.8926    0.3435   -0.9416 C   0  0  0  1  0  0  0  0  0  0  0  0
   -1.5438    2.8851   -3.1369 C   0  0  0  1  0  0  0  0  0  0  0  0
   -1.1474    3.2345    1.7042 C   0  0  0  1  0  0  0  0  0  0  0  0
   -1.4319    0.9283    2.2922 C   0  0  0  1  0  0  0  0  0  0  0  0
   -3.7996    1.0086    0.0957 C   0  0  0  1  0  0  0  0  0  0  0  0
   -1.5941    3.7841   -4.3453 C   0  0  0  1  0  0  0  0  0  0  0  0
   -2.1483    1.3003    3.4141 C   0  0  0  1  0  0  0  0  0  0  0  0
   -1.8637    3.6116    2.8256 C   0  0  0  1  0  0  0  0  0  0  0  0
   -2.3637    2.6451    3.6848 C   0  0  0  1  0  0  0  0  0  0  0  0
   -3.2509    4.4140    5.0028 C   0  0  0  1  0  0  0  0  0  0  0  0
    0.3659    3.4061   -2.2451 H   0  0  0  1  0  0  0  0  0  0  0  0
   -3.5018   -0.2160   -1.6514 H   0  0  0  1  0  0  0  0  0  0  0  0
   -2.2036   -0.3357   -0.4395 H   0  0  0  1  0  0  0  0  0  0  0  0
   -1.2645   -0.1175    2.0811 H   0  0  0  1  0  0  0  0  0  0  0  0
   -4.3660    0.2437    0.6269 H   0  0  0  1  0  0  0  0  0  0  0  0
   -3.1904    1.5682    0.8056 H   0  0  0  1  0  0  0  0  0  0  0  0
   -4.4886    1.6879   -0.4063 H   0  0  0  1  0  0  0  0  0  0  0  0
   -2.0657    4.7291   -4.0758 H   0  0  0  1  0  0  0  0  0  0  0  0
   -0.5810    3.9720   -4.7008 H   0  0  0  1  0  0  0  0  0  0  0  0
   -2.1720    3.3015   -5.1335 H   0  0  0  1  0  0  0  0  0  0  0  0
   -2.0334    4.6581    3.0319 H   0  0  0  1  0  0  0  0  0  0  0  0
   -3.8283    4.5692    5.9141 H   0  0  0  1  0  0  0  0  0  0  0  0
   -2.2783    4.8961    5.1023 H   0  0  0  1  0  0  0  0  0  0  0  0
   -3.7852    4.8452    4.1562 H   0  0  0  1  0  0  0  0  0  0  0  0
  1 14  1  0  0  0  0
  2 18  1  0  0  0  0
  3  4  2  0  0  0  0
  3  5  2  0  0  0  0
  3  7  1  0  0  0  0
  3 10  1  0  0  0  0
  6 20  1  0  0  0  0
  6 21  1  0  0  0  0
  7  9  4  0  0  0  0
  7 11  4  0  0  0  0
  8  9  4  0  0  0  0
  8 13  4  0  0  0  0
  9 12  1  0  0  0  0
 10 14  4  0  0  0  0
 10 15  4  0  0  0  0
 11 13  4  0  0  0  0
 11 22  1  0  0  0  0
 12 16  1  0  0  0  0
 12 23  1  0  0  0  0
 12 24  1  0  0  0  0
 13 17  1  0  0  0  0
 14 19  4  0  0  0  0
 15 18  4  0  0  0  0
 15 25  1  0  0  0  0
 16 26  1  0  0  0  0
 16 27  1  0  0  0  0
 16 28  1  0  0  0  0
 17 29  1  0  0  0  0
 17 30  1  0  0  0  0
 17 31  1  0  0  0  0
 18 20  4  0  0  0  0
 19 20  4  0  0  0  0
 19 32  1  0  0  0  0
 21 33  1  0  0  0  0
 21 34  1  0  0  0  0
 21 35  1  0  0  0  0
M  END
> <Activity>
0.01

> <Mapped(file=2032.csv.activities,property=Cached(PUBCHEM_COMPOUND_CID))>
100

> <MatchIndices>
53 

> <PUBCHEM_ATOM_DEF_STEREO_COUNT>
0

> <PUBCHEM_ATOM_UDEF_STEREO_COUNT>
0

> <PUBCHEM_BONDANNOTATIONS>
10  14  8
10  15  8
11  13  8
14  19  8
15  18  8
18  20  8
19  20  8
7  11  8
7  9  8
8  13  8
8  9  8

> <PUBCHEM_BOND_DEF_STEREO_COUNT>
0

> <PUBCHEM_BOND_UDEF_STEREO_COUNT>
0

> <PUBCHEM_CACTVS_COMPLEXITY>
457

> <PUBCHEM_CACTVS_HBOND_ACCEPTOR>
3

> <PUBCHEM_CACTVS_HBOND_DONOR>
0

> <PUBCHEM_CACTVS_ROTATABLE_BOND>
4

> <PUBCHEM_CACTVS_SUBSKEYS>
AAADccBzMABGAAAAAAAAAAAAAAAAAWAAAAAwAAAAAAAAAAABwAAAHgYAQAAACA7B1yY/l5YIFAKgATZnZHBCiD0xN+AB2Bg+e4iMbiPFOxqUMCAswBPIqCeAQAAAAIAQARAACIABACACIAARAAAAAAAAAA==

> <PUBCHEM_CACTVS_TAUTO_COUNT>
2

> <PUBCHEM_CACTVS_TPSA>
69.6

> <PUBCHEM_COMPONENT_COUNT>
1

> <PUBCHEM_COMPOUND_CANONICALIZED>
1

> <PUBCHEM_COMPOUND_CID>
801116

> <PUBCHEM_COORDINATE_TYPE>
1
5
255

> <PUBCHEM_EXACT_MASS>
348.010219

> <PUBCHEM_HEAVY_ATOM_COUNT>
21

> <PUBCHEM_ISOTOPIC_ATOM_COUNT>
0

> <PUBCHEM_IUPAC_CAS_NAME>
1-(2,5-dichloro-4-methoxyphenyl)sulfonyl-2-ethyl-4-methylimidazole

> <PUBCHEM_IUPAC_INCHI>
InChI=1S/C13H14Cl2N2O3S/c1-4-13-16-8(2)7-17(13)21(18,19)12-6-9(14)11(20-3)5-10(12)15/h5-7H,4H2,1-3H3

> <PUBCHEM_IUPAC_INCHIKEY>
URXHTZDMAZVXAP-UHFFFAOYSA-N

> <PUBCHEM_IUPAC_NAME>
1-(2,5-dichloro-4-methoxyphenyl)sulfonyl-2-ethyl-4-methylimidazole

> <PUBCHEM_IUPAC_OPENEYE_NAME>
1-(2,5-dichloro-4-methoxy-phenyl)sulfonyl-2-ethyl-4-methyl-imidazole

> <PUBCHEM_IUPAC_SYSTEMATIC_NAME>
1-[2,5-bis(chloranyl)-4-methoxy-phenyl]sulfonyl-2-ethyl-4-methyl-imidazole

> <PUBCHEM_IUPAC_TRADITIONAL_NAME>
1-(2,5-dichloro-4-methoxy-phenyl)sulfonyl-2-ethyl-4-methyl-imidazole

> <PUBCHEM_MOLECULAR_FORMULA>
C13H14Cl2N2O3S

> <PUBCHEM_MOLECULAR_WEIGHT>
349.23286

> <PUBCHEM_MONOISOTOPIC_WEIGHT>
348.010219

> <PUBCHEM_OPENEYE_CAN_SMILES>
CCC1=NC(=CN1S(=O)(=O)C2=C(C=C(C(=C2)Cl)OC)Cl)C

> <PUBCHEM_OPENEYE_ISO_SMILES>
CCC1=NC(=CN1S(=O)(=O)C2=C(C=C(C(=C2)Cl)OC)Cl)C

> <PUBCHEM_TOTAL_CHARGE>
0

> <PUBCHEM_XLOGP3_AA>
3.7

$$$$
Largest isolated from Written by BCL::WriteToMDL,5413085
JMcorina  04211410293D 1   1.00000     0.00000 
CORINA 3.49 0026  01.06.2011
 42 44  0  0  0  0  0  0  0  0999 V2000
    0.7361    0.6542   -1.5188 S   0  0  0  1  0  0  0  0  0  0  0  0
   -4.1983    4.8472    0.0920 O   0  0  0  1  0  0  0  0  0  0  0  0
   -5.1652    0.3101   -0.1462 O   0  0  0  1  0  0  0  0  0  0  0  0
   -3.3186   -1.5552    0.0564 N   0  0  0  1  0  0  0  0  0  0  0  0
   -2.4907   -2.6841    0.0260 N   0  0  0  1  0  0  0  0  0  0  0  0
    0.7321    0.3254    0.9694 N   0  0  0  1  0  0  0  0  0  0  0  0
   -2.5197   -0.4453    0.0284 C   0  0  0  1  0  0  0  0  0  0  0  0
   -1.1784   -0.8928   -0.0200 C   0  0  0  1  0  0  0  0  0  0  0  0
   -2.9544    0.9014    0.0444 C   0  0  0  1  0  0  0  0  0  0  0  0
   -1.1987   -2.2740   -0.0201 C   0  0  0  1  0  0  0  0  0  0  0  0
   -2.4417    3.2402    0.1628 C   0  0  0  1  0  0  0  0  0  0  0  0
   -2.0209    1.9453    0.1481 C   0  0  0  1  0  0  0  0  0  0  0  0
   -4.3369    1.2082   -0.0501 C   0  0  0  1  0  0  0  0  0  0  0  0
    0.0253   -0.0382   -0.0631 C   0  0  0  1  0  0  0  0  0  0  0  0
   -1.4299    4.3515    0.2739 C   0  0  0  1  0  0  0  0  0  0  0  0
   -3.8013    3.5498    0.0755 C   0  0  0  1  0  0  0  0  0  0  0  0
   -4.7440    2.5464   -0.0328 C   0  0  0  1  0  0  0  0  0  0  0  0
    0.0100   -3.1730   -0.0633 C   0  0  0  1  0  0  0  0  0  0  0  0
   -1.0775    4.8620   -1.1246 C   0  0  0  1  0  0  0  0  0  0  0  0
    1.7754    1.0921    0.7378 C   0  0  0  1  0  0  0  0  0  0  0  0
    1.9911    1.4118   -0.5404 C   0  0  0  1  0  0  0  0  0  0  0  0
    2.6716    1.5800    1.8468 C   0  0  0  1  0  0  0  0  0  0  0  0
   -5.6022    5.0973   -0.0005 C   0  0  0  1  0  0  0  0  0  0  0  0
   -4.2881   -1.5596    0.0876 H   0  0  0  1  0  0  0  0  0  0  0  0
   -0.9668    1.7206    0.2167 H   0  0  0  1  0  0  0  0  0  0  0  0
   -2.7913   -3.6063    0.0368 H   0  0  0  1  0  0  0  0  0  0  0  0
   -1.8491    5.1669    0.8634 H   0  0  0  1  0  0  0  0  0  0  0  0
   -0.5300    3.9761    0.7612 H   0  0  0  1  0  0  0  0  0  0  0  0
   -5.7928    2.7942   -0.1043 H   0  0  0  1  0  0  0  0  0  0  0  0
   -0.3112   -4.2145   -0.0523 H   0  0  0  1  0  0  0  0  0  0  0  0
    0.5762   -2.9770   -0.9738 H   0  0  0  1  0  0  0  0  0  0  0  0
    0.6393   -2.9776    0.8050 H   0  0  0  1  0  0  0  0  0  0  0  0
   -0.6583    4.0466   -1.7141 H   0  0  0  1  0  0  0  0  0  0  0  0
   -1.9773    5.2374   -1.6119 H   0  0  0  1  0  0  0  0  0  0  0  0
   -0.3456    5.6658   -1.0442 H   0  0  0  1  0  0  0  0  0  0  0  0
    2.7964    2.0287   -0.9111 H   0  0  0  1  0  0  0  0  0  0  0  0
    3.4770    0.8628    2.0052 H   0  0  0  1  0  0  0  0  0  0  0  0
    3.0945    2.5467    1.5735 H   0  0  0  1  0  0  0  0  0  0  0  0
    2.0916    1.6834    2.7638 H   0  0  0  1  0  0  0  0  0  0  0  0
   -5.7823    6.1720    0.0239 H   0  0  0  1  0  0  0  0  0  0  0  0
   -5.9837    4.6861   -0.9351 H   0  0  0  1  0  0  0  0  0  0  0  0
   -6.1116    4.6244    0.8392 H   0  0  0  1  0  0  0  0  0  0  0  0
  1 14  4  0  0  0  0
  1 21  4  0  0  0  0
  2 16  1  0  0  0  0
  2 23  1  0  0  0  0
  3 13  2  0  0  0  0
  4  5  1  0  0  0  0
  4  7  1  0  0  0  0
  4 24  1  0  0  0  0
  5 10  1  0  0  0  0
  5 26  1  0  0  0  0
  6 14  4  0  0  0  0
  6 20  4  0  0  0  0
  7  8  1  0  0  0  0
  7  9  2  0  0  0  0
  8 10  2  0  0  0  0
  8 14  1  0  0  0  0
  9 12  1  0  0  0  0
  9 13  1  0  0  0  0
 10 18  1  0  0  0  0
 11 12  2  0  0  0  0
 11 15  1  0  0  0  0
 11 16  1  0  0  0  0
 12 25  1  0  0  0  0
 13 17  1  0  0  0  0
 15 19  1  0  0  0  0
 15 27  1  0  0  0  0
 15 28  1  0  0  0  0
 16 17  2  0  0  0  0
 17 29  1  0  0  0  0
 18 30  1  0  0  0  0
 18 31  1  0  0  0  0
 18 32  1  0  0  0  0
 19 33  1  0  0  0  0
 19 34  1  0  0  0  0
 19 35  1  0  0  0  0
 20 21  4  0  0  0  0
 20 22  1  0  0  0  0
 21 36  1  0  0  0  0
 22 37  1  0  0  0  0
 22 38  1  0  0  0  0
 22 39  1  0  0  0  0
 23 40  1  0  0  0  0
 23 41  1  0  0  0  0
 23 42  1  0  0  0  0
M  END
> <Activity>
0.01

> <Mapped(file=2032.csv.activities,property=Cached(PUBCHEM_COMPOUND_CID))>
100

> <MatchIndices>
205 

> <PUBCHEM_ATOM_DEF_STEREO_COUNT>
0

> <PUBCHEM_ATOM_UDEF_STEREO_COUNT>
0

> <PUBCHEM_BONDANNOTATIONS>
1  14  8
1  21  8
20  21  8
6  14  8
6  20  8

> <PUBCHEM_BOND_DEF_STEREO_COUNT>
1

> <PUBCHEM_BOND_UDEF_STEREO_COUNT>
0

> <PUBCHEM_CACTVS_COMPLEXITY>
661

> <PUBCHEM_CACTVS_HBOND_ACCEPTOR>
5

> <PUBCHEM_CACTVS_HBOND_DONOR>
2

> <PUBCHEM_CACTVS_ROTATABLE_BOND>
3

> <PUBCHEM_CACTVS_SUBSKEYS>
AAADceB7MABAAAAAAAAAAAAAAAAAAWIAAAAgAAAAAAAAAAABgAAAHgQYAAAADAyF1gKigRJqFAisA6RyRACA+KBhKjoQKBUwIFgIBAAgYQAEEAAEkACooUIAAAAAAAAAAAAAAAAAAAAAAAAAAAAAAAAAAA==

> <PUBCHEM_CACTVS_TAUTO_COUNT>
47

> <PUBCHEM_CACTVS_TPSA>
91.5

> <PUBCHEM_COMPONENT_COUNT>
1

> <PUBCHEM_COMPOUND_CANONICALIZED>
1

> <PUBCHEM_COMPOUND_CID>
5413085

> <PUBCHEM_COORDINATE_TYPE>
1
5
255

> <PUBCHEM_EXACT_MASS>
329.119798

> <PUBCHEM_HEAVY_ATOM_COUNT>
23

> <PUBCHEM_ISOTOPIC_ATOM_COUNT>
0

> <PUBCHEM_IUPAC_CAS_NAME>
(6Z)-4-ethyl-3-methoxy-6-[5-methyl-4-(4-methyl-2-thiazolyl)-1,2-dihydropyrazol-3-ylidene]-1-cyclohexa-2,4-dienone

> <PUBCHEM_IUPAC_INCHI>
InChI=1S/C17H19N3O2S/c1-5-11-6-12(13(21)7-14(11)22-4)16-15(10(3)19-20-16)17-18-9(2)8-23-17/h6-8,19-20H,5H2,1-4H3/b16-12-

> <PUBCHEM_IUPAC_INCHIKEY>
GSBUFVIJOFTSPY-VBKFSLOCSA-N

> <PUBCHEM_IUPAC_NAME>
(6Z)-4-ethyl-3-methoxy-6-[5-methyl-4-(4-methyl-1,3-thiazol-2-yl)-1,2-dihydropyrazol-3-ylidene]cyclohexa-2,4-dien-1-one

> <PUBCHEM_IUPAC_OPENEYE_NAME>
(6Z)-4-ethyl-3-methoxy-6-[5-methyl-4-(4-methylthiazol-2-yl)-1,2-dihydropyrazol-3-ylidene]cyclohexa-2,4-dien-1-one

> <PUBCHEM_IUPAC_SYSTEMATIC_NAME>
(6Z)-4-ethyl-3-methoxy-6-[5-methyl-4-(4-methyl-1,3-thiazol-2-yl)-1,2-dihydropyrazol-3-ylidene]cyclohexa-2,4-dien-1-one

> <PUBCHEM_IUPAC_TRADITIONAL_NAME>
(6Z)-4-ethyl-3-methoxy-6-[5-methyl-4-(4-methylthiazol-2-yl)-3-pyrazolin-3-ylidene]cyclohexa-2,4-dien-1-one

> <PUBCHEM_MOLECULAR_FORMULA>
C17H19N3O2S

> <PUBCHEM_MOLECULAR_WEIGHT>
329.41666

> <PUBCHEM_MONOISOTOPIC_WEIGHT>
329.119798

> <PUBCHEM_OPENEYE_CAN_SMILES>
CCC1=CC(=C2C(=C(NN2)C)C3=NC(=CS3)C)C(=O)C=C1OC

> <PUBCHEM_OPENEYE_ISO_SMILES>
CCC1=C/C(=C/2\C(=C(NN2)C)C3=NC(=CS3)C)/C(=O)C=C1OC

> <PUBCHEM_TOTAL_CHARGE>
0

> <PUBCHEM_XLOGP3_AA>
2.8

$$$$
Largest isolated from Written by BCL::WriteToMDL,2984782
JMcorina  04211410293D 1   1.00000     0.00000 
CORINA 3.49 0026  01.06.2011
 47 48  0  0  0  0  0  0  0  0999 V2000
    0.9871    1.9398    2.8420 Br  0  0  0  1  0  0  0  0  0  0  0  0
   -0.0173    1.4248    0.0099 O   0  0  0  1  0  0  0  0  0  0  0  0
    1.1816    2.0801   -2.3815 O   0  0  0  1  0  0  0  0  0  0  0  0
    4.7577    5.5061   -0.0089 N   0  0  0  1  0  0  0  0  0  0  0  0
    0.0021   -0.0041    0.0020 C   0  0  0  1  0  0  0  0  0  0  0  0
   -1.2357   -0.5520    0.7338 C   0  0  0  1  0  0  0  0  0  0  0  0
   -0.0762   -0.5257   -1.4477 C   0  0  0  1  0  0  0  0  0  0  0  0
   -2.0229   -1.3875   -0.2968 C   0  0  0  1  0  0  0  0  0  0  0  0
   -0.9603   -1.7936   -1.3480 C   0  0  0  1  0  0  0  0  0  0  0  0
    1.1860    2.0587    0.0018 C   0  0  0  1  0  0  0  0  0  0  0  0
    1.7914    2.3901   -1.2062 C   0  0  0  1  0  0  0  0  0  0  0  0
    1.8095    2.3812    1.1974 C   0  0  0  1  0  0  0  0  0  0  0  0
    3.6366    3.3502   -0.0139 C   0  0  0  1  0  0  0  0  0  0  0  0
    3.0173    3.0364   -1.2093 C   0  0  0  1  0  0  0  0  0  0  0  0
    4.9699    4.0526   -0.0197 C   0  0  0  1  0  0  0  0  0  0  0  0
    3.0330    3.0263    1.1869 C   0  0  0  1  0  0  0  0  0  0  0  0
    6.0387    6.2252   -0.0142 C   0  0  0  1  0  0  0  0  0  0  0  0
    5.7773    7.7327   -0.0026 C   0  0  0  1  0  0  0  0  0  0  0  0
    7.1115    8.4816   -0.0081 C   0  0  0  1  0  0  0  0  0  0  0  0
    6.8501    9.9891    0.0035 C   0  0  0  1  0  0  0  0  0  0  0  0
    1.8613    2.4507   -3.5826 C   0  0  0  1  0  0  0  0  0  0  0  0
    0.9108   -0.3675    0.4818 H   0  0  0  1  0  0  0  0  0  0  0  0
   -0.9276   -1.1821    1.5682 H   0  0  0  1  0  0  0  0  0  0  0  0
   -1.8511    0.2719    1.0949 H   0  0  0  1  0  0  0  0  0  0  0  0
   -0.5443    0.2158   -2.0951 H   0  0  0  1  0  0  0  0  0  0  0  0
    0.9176   -0.7814   -1.8153 H   0  0  0  1  0  0  0  0  0  0  0  0
   -2.4498   -2.2722    0.1755 H   0  0  0  1  0  0  0  0  0  0  0  0
   -2.8054   -0.7852   -0.7584 H   0  0  0  1  0  0  0  0  0  0  0  0
   -1.4297   -2.0135   -2.3068 H   0  0  0  1  0  0  0  0  0  0  0  0
   -0.3765   -2.6450   -0.9981 H   0  0  0  1  0  0  0  0  0  0  0  0
    5.5240    3.7730   -0.9158 H   0  0  0  1  0  0  0  0  0  0  0  0
    5.5377    3.7617    0.8641 H   0  0  0  1  0  0  0  0  0  0  0  0
    3.4891    3.2947   -2.1458 H   0  0  0  1  0  0  0  0  0  0  0  0
    3.5177    3.2774    2.1188 H   0  0  0  1  0  0  0  0  0  0  0  0
    6.6138    5.9494    0.8697 H   0  0  0  1  0  0  0  0  0  0  0  0
    6.6001    5.9607   -0.9102 H   0  0  0  1  0  0  0  0  0  0  0  0
    5.2022    8.0085   -0.8864 H   0  0  0  1  0  0  0  0  0  0  0  0
    5.2158    7.9972    0.8934 H   0  0  0  1  0  0  0  0  0  0  0  0
    4.1789    5.7928   -0.7840 H   0  0  0  1  0  0  0  0  0  0  0  0
    7.6866    8.2058    0.8758 H   0  0  0  1  0  0  0  0  0  0  0  0
    7.6729    8.2171   -0.9041 H   0  0  0  1  0  0  0  0  0  0  0  0
    6.2750   10.2650   -0.8804 H   0  0  0  1  0  0  0  0  0  0  0  0
    6.2887   10.2537    0.8995 H   0  0  0  1  0  0  0  0  0  0  0  0
    7.8006   10.5227   -0.0005 H   0  0  0  1  0  0  0  0  0  0  0  0
    2.8326    1.9572   -3.6175 H   0  0  0  1  0  0  0  0  0  0  0  0
    1.2679    2.1462   -4.4447 H   0  0  0  1  0  0  0  0  0  0  0  0
    2.0020    3.5314   -3.6018 H   0  0  0  1  0  0  0  0  0  0  0  0
  1 12  1  0  0  0  0
  2  5  1  0  0  0  0
  2 10  1  0  0  0  0
  3 11  1  0  0  0  0
  3 21  1  0  0  0  0
  4 15  1  0  0  0  0
  4 17  1  0  0  0  0
  4 39  1  0  0  0  0
  5  6  1  0  0  0  0
  5  7  1  0  0  0  0
  5 22  1  0  0  0  0
  6  8  1  0  0  0  0
  6 23  1  0  0  0  0
  6 24  1  0  0  0  0
  7  9  1  0  0  0  0
  7 25  1  0  0  0  0
  7 26  1  0  0  0  0
  8  9  1  0  0  0  0
  8 27  1  0  0  0  0
  8 28  1  0  0  0  0
  9 29  1  0  0  0  0
  9 30  1  0  0  0  0
 10 11  4  0  0  0  0
 10 12  4  0  0  0  0
 11 14  4  0  0  0  0
 12 16  4  0  0  0  0
 13 14  4  0  0  0  0
 13 15  1  0  0  0  0
 13 16  4  0  0  0  0
 14 33  1  0  0  0  0
 15 31  1  0  0  0  0
 15 32  1  0  0  0  0
 16 34  1  0  0  0  0
 17 18  1  0  0  0  0
 17 35  1  0  0  0  0
 17 36  1  0  0  0  0
 18 19  1  0  0  0  0
 18 37  1  0  0  0  0
 18 38  1  0  0  0  0
 19 20  1  0  0  0  0
 19 40  1  0  0  0  0
 19 41  1  0  0  0  0
 20 42  1  0  0  0  0
 20 43  1  0  0  0  0
 20 44  1  0  0  0  0
 21 45  1  0  0  0  0
 21 46  1  0  0  0  0
 21 47  1  0  0  0  0
M  END
> <Activity>
0.01

> <Mapped(file=2032.csv.activities,property=Cached(PUBCHEM_COMPOUND_CID))>
100

> <MatchIndices>
162 

> <PUBCHEM_ATOM_DEF_STEREO_COUNT>
0

> <PUBCHEM_ATOM_UDEF_STEREO_COUNT>
0

> <PUBCHEM_BONDANNOTATIONS>
11  12  8
11  13  8
12  15  8
13  17  8
14  15  8
14  17  8

> <PUBCHEM_BOND_DEF_STEREO_COUNT>
0

> <PUBCHEM_BOND_UDEF_STEREO_COUNT>
0

> <PUBCHEM_CACTVS_COMPLEXITY>
284

> <PUBCHEM_CACTVS_HBOND_ACCEPTOR>
3

> <PUBCHEM_CACTVS_HBOND_DONOR>
2

> <PUBCHEM_CACTVS_ROTATABLE_BOND>
8

> <PUBCHEM_CACTVS_SUBSKEYS>
AAADceB6MAAEEAAAAAAAAAAAAAAAAYAAAAAwAAAAAAAAAAABAAAAHgBQAAABrBThmAYyBoLABACAAiBCAACCCAAgIAQAiIAOjKgNJiKEsRuGOCrk0BGKqhew0BIOIAABEIAARABAAAIhAACIAAAAAAAAAA==

> <PUBCHEM_CACTVS_TAUTO_COUNT>
1

> <PUBCHEM_CACTVS_TPSA>
30.5

> <PUBCHEM_COMPONENT_COUNT>
2

> <PUBCHEM_COMPOUND_CANONICALIZED>
1

> <PUBCHEM_COMPOUND_CID>
2984782

> <PUBCHEM_COORDINATE_TYPE>
1
5
255

> <PUBCHEM_EXACT_MASS>
391.091369

> <PUBCHEM_HEAVY_ATOM_COUNT>
22

> <PUBCHEM_ISOTOPIC_ATOM_COUNT>
0

> <PUBCHEM_IUPAC_CAS_NAME>
N-[(3-bromo-4-cyclopentyloxy-5-methoxyphenyl)methyl]-1-butanamine hydrochloride

> <PUBCHEM_IUPAC_INCHI>
InChI=1S/C17H26BrNO2.ClH/c1-3-4-9-19-12-13-10-15(18)17(16(11-13)20-2)21-14-7-5-6-8-14;/h10-11,14,19H,3-9,12H2,1-2H3;1H

> <PUBCHEM_IUPAC_INCHIKEY>
CKZNGMPMGXFLLV-UHFFFAOYSA-N

> <PUBCHEM_IUPAC_NAME>
N-[(3-bromo-4-cyclopentyloxy-5-methoxyphenyl)methyl]butan-1-amine hydrochloride

> <PUBCHEM_IUPAC_OPENEYE_NAME>
N-[[3-bromo-4-(cyclopentoxy)-5-methoxy-phenyl]methyl]butan-1-amine hydrochloride

> <PUBCHEM_IUPAC_SYSTEMATIC_NAME>
N-[(3-bromanyl-4-cyclopentyloxy-5-methoxy-phenyl)methyl]butan-1-amine hydrochloride

> <PUBCHEM_IUPAC_TRADITIONAL_NAME>
[3-bromo-4-(cyclopentoxy)-5-methoxy-benzyl]-butyl-amine hydrochloride

> <PUBCHEM_MOLECULAR_FORMULA>
C17H27BrClNO2

> <PUBCHEM_MOLECULAR_WEIGHT>
392.75878

> <PUBCHEM_MONOISOTOPIC_WEIGHT>
391.091369

> <PUBCHEM_OPENEYE_CAN_SMILES>
CCCCNCC1=CC(=C(C(=C1)Br)OC2CCCC2)OC.Cl

> <PUBCHEM_OPENEYE_ISO_SMILES>
CCCCNCC1=CC(=C(C(=C1)Br)OC2CCCC2)OC.Cl

> <PUBCHEM_TOTAL_CHARGE>
0

$$$$
Largest isolated from Written by BCL::WriteToMDL,17367486
JMcorina  04211410293D 1   1.00000     0.00000 
CORINA 3.49 0026  01.06.2011
 44 46  0  0  0  0  0  0  0  0999 V2000
   -0.0163    1.3538    0.0095 O   0  0  0  1  0  0  0  0  0  0  0  0
   -0.9429   -8.0064   -6.7160 O   0  0  0  1  0  0  0  0  0  0  0  0
   -0.0895   -4.7968   -1.3895 N   0  0  0  1  0  0  0  0  0  0  0  0
    0.0799   -2.8000   -0.0151 C   0  0  0  1  0  0  0  0  0  0  0  0
   -1.1647   -2.1469    0.0012 C   0  0  0  1  0  0  0  0  0  0  0  0
    0.1436   -4.3056   -0.0248 C   0  0  0  1  0  0  0  0  0  0  0  0
   -1.2065   -0.7305    0.0097 C   0  0  0  1  0  0  0  0  0  0  0  0
    1.2274   -2.0677   -0.0278 C   0  0  0  1  0  0  0  0  0  0  0  0
   -0.0345   -6.2640   -1.4375 C   0  0  0  1  0  0  0  0  0  0  0  0
    0.0021   -0.0041    0.0020 C   0  0  0  1  0  0  0  0  0  0  0  0
   -2.3687   -2.8712    0.0087 C   0  0  0  1  0  0  0  0  0  0  0  0
    1.1916   -0.6757   -0.0249 C   0  0  0  1  0  0  0  0  0  0  0  0
   -2.4491   -0.0778    0.0250 C   0  0  0  1  0  0  0  0  0  0  0  0
   -0.2776   -6.7298   -2.8499 C   0  0  0  1  0  0  0  0  0  0  0  0
   -3.5556   -2.2046    0.0242 C   0  0  0  1  0  0  0  0  0  0  0  0
   -3.5959   -0.8120    0.0316 C   0  0  0  1  0  0  0  0  0  0  0  0
    0.7878   -6.8920   -3.7162 C   0  0  0  1  0  0  0  0  0  0  0  0
   -1.5651   -6.9999   -3.2756 C   0  0  0  1  0  0  0  0  0  0  0  0
    0.5676   -7.3193   -5.0113 C   0  0  0  1  0  0  0  0  0  0  0  0
   -1.7905   -7.4275   -4.5698 C   0  0  0  1  0  0  0  0  0  0  0  0
   -0.7238   -7.5859   -5.4425 C   0  0  0  1  0  0  0  0  0  0  0  0
    1.2479    2.0199    0.0010 C   0  0  0  1  0  0  0  0  0  0  0  0
   -2.2981   -8.2618   -7.0908 C   0  0  0  1  0  0  0  0  0  0  0  0
   -0.6209   -4.7059    0.6409 H   0  0  0  1  0  0  0  0  0  0  0  0
    1.1273   -4.6298    0.3150 H   0  0  0  1  0  0  0  0  0  0  0  0
   -0.9674   -4.4558   -1.7516 H   0  0  0  1  0  0  0  0  0  0  0  0
    2.1810   -2.5745   -0.0399 H   0  0  0  1  0  0  0  0  0  0  0  0
    0.9479   -6.6018   -1.1075 H   0  0  0  1  0  0  0  0  0  0  0  0
   -0.8003   -6.6779   -0.7815 H   0  0  0  1  0  0  0  0  0  0  0  0
   -2.3526   -3.9510    0.0020 H   0  0  0  1  0  0  0  0  0  0  0  0
    2.1171   -0.1193   -0.0348 H   0  0  0  1  0  0  0  0  0  0  0  0
   -2.4954    1.0012    0.0321 H   0  0  0  1  0  0  0  0  0  0  0  0
   -4.4797   -2.7636    0.0296 H   0  0  0  1  0  0  0  0  0  0  0  0
   -4.5507   -0.3074    0.0434 H   0  0  0  1  0  0  0  0  0  0  0  0
    1.7929   -6.6840   -3.3802 H   0  0  0  1  0  0  0  0  0  0  0  0
   -2.3951   -6.8768   -2.5958 H   0  0  0  1  0  0  0  0  0  0  0  0
    1.4001   -7.4455   -5.6877 H   0  0  0  1  0  0  0  0  0  0  0  0
   -2.7963   -7.6387   -4.9017 H   0  0  0  1  0  0  0  0  0  0  0  0
    1.0905    3.0984    0.0083 H   0  0  0  1  0  0  0  0  0  0  0  0
    1.8173    1.7298    0.8840 H   0  0  0  1  0  0  0  0  0  0  0  0
    1.8003    1.7394   -0.8958 H   0  0  0  1  0  0  0  0  0  0  0  0
   -2.7116   -9.0406   -6.4499 H   0  0  0  1  0  0  0  0  0  0  0  0
   -2.8842   -7.3497   -6.9786 H   0  0  0  1  0  0  0  0  0  0  0  0
   -2.3321   -8.5901   -8.1296 H   0  0  0  1  0  0  0  0  0  0  0  0
  1 10  1  0  0  0  0
  1 22  1  0  0  0  0
  2 21  1  0  0  0  0
  2 23  1  0  0  0  0
  3  6  1  0  0  0  0
  3  9  1  0  0  0  0
  3 26  1  0  0  0  0
  4  5  4  0  0  0  0
  4  6  1  0  0  0  0
  4  8  4  0  0  0  0
  5  7  4  0  0  0  0
  5 11  4  0  0  0  0
  6 24  1  0  0  0  0
  6 25  1  0  0  0  0
  7 10  4  0  0  0  0
  7 13  4  0  0  0  0
  8 12  4  0  0  0  0
  8 27  1  0  0  0  0
  9 14  1  0  0  0  0
  9 28  1  0  0  0  0
  9 29  1  0  0  0  0
 10 12  4  0  0  0  0
 11 15  4  0  0  0  0
 11 30  1  0  0  0  0
 12 31  1  0  0  0  0
 13 16  4  0  0  0  0
 13 32  1  0  0  0  0
 14 17  4  0  0  0  0
 14 18  4  0  0  0  0
 15 16  4  0  0  0  0
 15 33  1  0  0  0  0
 16 34  1  0  0  0  0
 17 19  4  0  0  0  0
 17 35  1  0  0  0  0
 18 20  4  0  0  0  0
 18 36  1  0  0  0  0
 19 21  4  0  0  0  0
 19 37  1  0  0  0  0
 20 21  4  0  0  0  0
 20 38  1  0  0  0  0
 22 39  1  0  0  0  0
 22 40  1  0  0  0  0
 22 41  1  0  0  0  0
 23 42  1  0  0  0  0
 23 43  1  0  0  0  0
 23 44  1  0  0  0  0
M  END
> <Activity>
0.01

> <Mapped(file=2032.csv.activities,property=Cached(PUBCHEM_COMPOUND_CID))>
100

> <MatchIndices>
194 

> <PUBCHEM_ATOM_DEF_STEREO_COUNT>
0

> <PUBCHEM_ATOM_UDEF_STEREO_COUNT>
0

> <PUBCHEM_BONDANNOTATIONS>
11  14  8
11  17  8
12  16  8
14  16  8
15  19  8
17  20  8
18  21  8
18  22  8
19  20  8
21  23  8
22  24  8
23  25  8
24  25  8
8  12  8
8  9  8
9  11  8
9  15  8

> <PUBCHEM_BOND_DEF_STEREO_COUNT>
0

> <PUBCHEM_BOND_UDEF_STEREO_COUNT>
0

> <PUBCHEM_CACTVS_COMPLEXITY>
412

> <PUBCHEM_CACTVS_HBOND_ACCEPTOR>
7

> <PUBCHEM_CACTVS_HBOND_DONOR>
3

> <PUBCHEM_CACTVS_ROTATABLE_BOND>
7

> <PUBCHEM_CACTVS_SUBSKEYS>
AAADceB6OAAAAAAAAAAAAAAAAAAAAAAAAAAwYMAAAAAAAADBVAAAHgAQCAAADATBmAYyDsLABgCIAiDSCAKCCAAgIAAIiIBODIgNJiKEsRuEMChkwBGJqAeQ0PIOoAADAAAYAABAAAYAADAAAAAAAAAAAA==

> <PUBCHEM_CACTVS_TAUTO_COUNT>
1

> <PUBCHEM_CACTVS_TPSA>
105

> <PUBCHEM_COMPONENT_COUNT>
2

> <PUBCHEM_COMPOUND_CANONICALIZED>
1

> <PUBCHEM_COMPOUND_CID>
17367486

> <PUBCHEM_COORDINATE_TYPE>
1
5
255

> <PUBCHEM_EXACT_MASS>
397.152537

> <PUBCHEM_HEAVY_ATOM_COUNT>
29

> <PUBCHEM_ISOTOPIC_ATOM_COUNT>
0

> <PUBCHEM_IUPAC_CAS_NAME>
N-[(4-methoxy-1-naphthalenyl)methyl]-1-(4-methoxyphenyl)methanamine; oxalic acid

> <PUBCHEM_IUPAC_INCHI>
InChI=1S/C20H21NO2.C2H2O4/c1-22-17-10-7-15(8-11-17)13-21-14-16-9-12-20(23-2)19-6-4-3-5-18(16)19;3-1(4)2(5)6/h3-12,21H,13-14H2,1-2H3;(H,3,4)(H,5,6)

> <PUBCHEM_IUPAC_INCHIKEY>
MAIQFPYLLHLRES-UHFFFAOYSA-N

> <PUBCHEM_IUPAC_NAME>
N-[(4-methoxynaphthalen-1-yl)methyl]-1-(4-methoxyphenyl)methanamine; oxalic acid

> <PUBCHEM_IUPAC_OPENEYE_NAME>
N-[(4-methoxy-1-naphthyl)methyl]-1-(4-methoxyphenyl)methanamine; oxalic acid

> <PUBCHEM_IUPAC_SYSTEMATIC_NAME>
ethanedioic acid; N-[(4-methoxynaphthalen-1-yl)methyl]-1-(4-methoxyphenyl)methanamine

> <PUBCHEM_IUPAC_TRADITIONAL_NAME>
(4-methoxy-1-naphthyl)methyl-p-anisyl-amine; oxalic acid

> <PUBCHEM_MOLECULAR_FORMULA>
C22H23NO6

> <PUBCHEM_MOLECULAR_WEIGHT>
397.42112

> <PUBCHEM_MONOISOTOPIC_WEIGHT>
397.152537

> <PUBCHEM_OPENEYE_CAN_SMILES>
COC1=CC=C(C=C1)CNCC2=CC=C(C3=CC=CC=C23)OC.C(=O)(C(=O)O)O

> <PUBCHEM_OPENEYE_ISO_SMILES>
COC1=CC=C(C=C1)CNCC2=CC=C(C3=CC=CC=C23)OC.C(=O)(C(=O)O)O

> <PUBCHEM_TOTAL_CHARGE>
0

$$$$
Largest isolated from Written by BCL::WriteToMDL,1483198
JMcorina  04211410293D 1   1.00000     0.00000 
CORINA 3.49 0026  01.06.2011
 43 44  0  0  0  0  0  0  0  0999 V2000
   -0.0172    1.4168    0.0098 S   0  0  0  1  0  0  0  0  0  0  0  0
   -0.9178    1.9107   -5.3534 S   0  0  0  1  0  0  0  0  0  0  0  0
    0.0021   -0.0041    0.0020 O   0  0  0  1  0  0  0  0  0  0  0  0
    1.1903    2.1659    0.0023 O   0  0  0  1  0  0  0  0  0  0  0  0
    0.2487    2.6823   -5.6045 O   0  0  0  1  0  0  0  0  0  0  0  0
   -0.9395    0.5123   -5.6048 O   0  0  0  1  0  0  0  0  0  0  0  0
   -0.6088    1.7411   -2.6409 C   0  0  0  1  0  0  0  0  0  0  0  0
   -1.1637    2.0448   -1.2478 C   0  0  0  1  0  0  0  0  0  0  0  0
   -1.5758    2.2708   -3.7017 C   0  0  0  1  0  0  0  0  0  0  0  0
   -0.7770    1.8326    1.5442 C   0  0  0  1  0  0  0  0  0  0  0  0
   -2.1210    2.5697   -6.4592 C   0  0  0  1  0  0  0  0  0  0  0  0
   -1.6500    0.9457    2.1460 C   0  0  0  1  0  0  0  0  0  0  0  0
   -2.0180    3.8782   -6.8928 C   0  0  0  1  0  0  0  0  0  0  0  0
   -0.4957    3.0434    2.1491 C   0  0  0  1  0  0  0  0  0  0  0  0
   -3.1648    1.7765   -6.8976 C   0  0  0  1  0  0  0  0  0  0  0  0
   -1.9689    2.4849    3.9520 C   0  0  0  1  0  0  0  0  0  0  0  0
   -4.0086    3.6036   -8.1946 C   0  0  0  1  0  0  0  0  0  0  0  0
   -2.2461    1.2720    3.3498 C   0  0  0  1  0  0  0  0  0  0  0  0
   -2.9619    4.3952   -7.7603 C   0  0  0  1  0  0  0  0  0  0  0  0
   -1.0918    3.3696    3.3529 C   0  0  0  1  0  0  0  0  0  0  0  0
   -4.1087    2.2934   -7.7651 C   0  0  0  1  0  0  0  0  0  0  0  0
   -5.0380    4.1674   -9.1399 C   0  0  0  1  0  0  0  0  0  0  0  0
   -2.6191    2.8408    5.2641 C   0  0  0  1  0  0  0  0  0  0  0  0
    0.3608    2.2249   -2.7592 H   0  0  0  1  0  0  0  0  0  0  0  0
   -0.4941    0.6636   -2.7594 H   0  0  0  1  0  0  0  0  0  0  0  0
   -2.1333    1.5610   -1.1296 H   0  0  0  1  0  0  0  0  0  0  0  0
   -1.2784    3.1222   -1.1294 H   0  0  0  1  0  0  0  0  0  0  0  0
   -1.6905    3.3482   -3.5832 H   0  0  0  1  0  0  0  0  0  0  0  0
   -2.5454    1.7870   -3.5835 H   0  0  0  1  0  0  0  0  0  0  0  0
   -1.8666   -0.0020    1.6755 H   0  0  0  1  0  0  0  0  0  0  0  0
   -1.2002    4.4967   -6.5536 H   0  0  0  1  0  0  0  0  0  0  0  0
    0.1900    3.7343    1.6813 H   0  0  0  1  0  0  0  0  0  0  0  0
   -3.2426    0.7527   -6.5625 H   0  0  0  1  0  0  0  0  0  0  0  0
   -2.9288    0.5793    3.8196 H   0  0  0  1  0  0  0  0  0  0  0  0
   -2.8818    5.4178   -8.0985 H   0  0  0  1  0  0  0  0  0  0  0  0
   -0.8718    4.3154    3.8256 H   0  0  0  1  0  0  0  0  0  0  0  0
   -4.9240    1.6736   -8.1078 H   0  0  0  1  0  0  0  0  0  0  0  0
   -4.7204    3.9942  -10.1681 H   0  0  0  1  0  0  0  0  0  0  0  0
   -5.9962    3.6770   -8.9682 H   0  0  0  1  0  0  0  0  0  0  0  0
   -5.1418    5.2386   -8.9672 H   0  0  0  1  0  0  0  0  0  0  0  0
   -1.9914    2.4963    6.0859 H   0  0  0  1  0  0  0  0  0  0  0  0
   -2.7403    3.9222    5.3281 H   0  0  0  1  0  0  0  0  0  0  0  0
   -3.5960    2.3613    5.3274 H   0  0  0  1  0  0  0  0  0  0  0  0
  1  3  2  0  0  0  0
  1  4  2  0  0  0  0
  1  8  1  0  0  0  0
  1 10  1  0  0  0  0
  2  5  2  0  0  0  0
  2  6  2  0  0  0  0
  2  9  1  0  0  0  0
  2 11  1  0  0  0  0
  7  8  1  0  0  0  0
  7  9  1  0  0  0  0
  7 24  1  0  0  0  0
  7 25  1  0  0  0  0
  8 26  1  0  0  0  0
  8 27  1  0  0  0  0
  9 28  1  0  0  0  0
  9 29  1  0  0  0  0
 10 12  4  0  0  0  0
 10 14  4  0  0  0  0
 11 13  4  0  0  0  0
 11 15  4  0  0  0  0
 12 18  4  0  0  0  0
 12 30  1  0  0  0  0
 13 19  4  0  0  0  0
 13 31  1  0  0  0  0
 14 20  4  0  0  0  0
 14 32  1  0  0  0  0
 15 21  4  0  0  0  0
 15 33  1  0  0  0  0
 16 18  4  0  0  0  0
 16 20  4  0  0  0  0
 16 23  1  0  0  0  0
 17 19  4  0  0  0  0
 17 21  4  0  0  0  0
 17 22  1  0  0  0  0
 18 34  1  0  0  0  0
 19 35  1  0  0  0  0
 20 36  1  0  0  0  0
 21 37  1  0  0  0  0
 22 38  1  0  0  0  0
 22 39  1  0  0  0  0
 22 40  1  0  0  0  0
 23 41  1  0  0  0  0
 23 42  1  0  0  0  0
 23 43  1  0  0  0  0
M  END
> <Activity>
0.01

> <Mapped(file=2032.csv.activities,property=Cached(PUBCHEM_COMPOUND_CID))>
100

> <MatchIndices>
163 

> <PUBCHEM_ATOM_DEF_STEREO_COUNT>
0

> <PUBCHEM_ATOM_UDEF_STEREO_COUNT>
0

> <PUBCHEM_BONDANNOTATIONS>
10  12  8
10  14  8
11  13  8
11  15  8
12  18  8
13  19  8
14  20  8
15  21  8
16  18  8
16  20  8
17  19  8
17  21  8

> <PUBCHEM_BOND_DEF_STEREO_COUNT>
0

> <PUBCHEM_BOND_UDEF_STEREO_COUNT>
0

> <PUBCHEM_CACTVS_COMPLEXITY>
501

> <PUBCHEM_CACTVS_HBOND_ACCEPTOR>
4

> <PUBCHEM_CACTVS_HBOND_DONOR>
0

> <PUBCHEM_CACTVS_ROTATABLE_BOND>
6

> <PUBCHEM_CACTVS_SUBSKEYS>
AAADceB4OABgAAAAAAAAAAAAAAAAAAAAAAAwYAAAAAAAAAABQAAAGAQAAAAADACEWACyAYAAAAqAAiBCAHBCAAAgCBAIiBgAAIgIICKgERCAIAAggAAoiAcAgAAOEAAAAAAAAAAgAAAAAAAAAAAAAAAAAA==

> <PUBCHEM_CACTVS_TAUTO_COUNT>
1

> <PUBCHEM_CACTVS_TPSA>
85

> <PUBCHEM_COMPONENT_COUNT>
1

> <PUBCHEM_COMPOUND_CANONICALIZED>
1

> <PUBCHEM_COMPOUND_CID>
1483198

> <PUBCHEM_COORDINATE_TYPE>
1
5
255

> <PUBCHEM_EXACT_MASS>
352.080301

> <PUBCHEM_HEAVY_ATOM_COUNT>
23

> <PUBCHEM_ISOTOPIC_ATOM_COUNT>
0

> <PUBCHEM_IUPAC_CAS_NAME>
1-methyl-4-[3-(4-methylphenyl)sulfonylpropylsulfonyl]benzene

> <PUBCHEM_IUPAC_INCHI>
InChI=1S/C17H20O4S2/c1-14-4-8-16(9-5-14)22(18,19)12-3-13-23(20,21)17-10-6-15(2)7-11-17/h4-11H,3,12-13H2,1-2H3

> <PUBCHEM_IUPAC_INCHIKEY>
CLTWZERGIYDXHV-UHFFFAOYSA-N

> <PUBCHEM_IUPAC_NAME>
1-methyl-4-[3-(4-methylphenyl)sulfonylpropylsulfonyl]benzene

> <PUBCHEM_IUPAC_OPENEYE_NAME>
1-methyl-4-[3-(p-tolylsulfonyl)propylsulfonyl]benzene

> <PUBCHEM_IUPAC_SYSTEMATIC_NAME>
1-methyl-4-[3-(4-methylphenyl)sulfonylpropylsulfonyl]benzene

> <PUBCHEM_IUPAC_TRADITIONAL_NAME>
1-methyl-4-(3-tosylpropylsulfonyl)benzene

> <PUBCHEM_MOLECULAR_FORMULA>
C17H20O4S2

> <PUBCHEM_MOLECULAR_WEIGHT>
352.4683

> <PUBCHEM_MONOISOTOPIC_WEIGHT>
352.080301

> <PUBCHEM_OPENEYE_CAN_SMILES>
CC1=CC=C(C=C1)S(=O)(=O)CCCS(=O)(=O)C2=CC=C(C=C2)C

> <PUBCHEM_OPENEYE_ISO_SMILES>
CC1=CC=C(C=C1)S(=O)(=O)CCCS(=O)(=O)C2=CC=C(C=C2)C

> <PUBCHEM_TOTAL_CHARGE>
0

> <PUBCHEM_XLOGP3_AA>
3.2

$$$$
Largest isolated from Written by BCL::WriteToMDL,715695
JMcorina  04211410293D 1   1.00000     0.00000 
CORINA 3.49 0026  01.06.2011
 38 40  0  0  0  0  0  0  0  0999 V2000
   -0.0167    1.3828    0.0096 N   0  0  0  1  0  0  0  0  0  0  0  0
   -0.4178   -2.5440   -1.2922 N   0  0  0  1  0  0  0  0  0  0  0  0
   -1.3836   -0.6195   -0.2680 C   0  0  0  1  0  0  0  0  0  0  0  0
   -0.1579    0.0723   -0.4222 C   0  0  0  1  0  0  0  0  0  0  0  0
   -1.4775   -1.9557   -0.7251 C   0  0  0  1  0  0  0  0  0  0  0  0
   -2.6926   -2.6451   -0.5737 C   0  0  0  1  0  0  0  0  0  0  0  0
    0.8960   -0.6013   -1.0191 C   0  0  0  1  0  0  0  0  0  0  0  0
   -2.4965   -0.0085    0.3247 C   0  0  0  1  0  0  0  0  0  0  0  0
    0.7235   -1.9127   -1.4409 C   0  0  0  1  0  0  0  0  0  0  0  0
    1.1457    2.0967   -0.2928 C   0  0  0  1  0  0  0  0  0  0  0  0
   -3.7552   -2.0221    0.0067 C   0  0  0  1  0  0  0  0  0  0  0  0
   -3.6592   -0.7076    0.4552 C   0  0  0  1  0  0  0  0  0  0  0  0
   -2.8193   -4.0684   -1.0523 C   0  0  0  1  0  0  0  0  0  0  0  0
    1.7149    1.9972   -1.5562 C   0  0  0  1  0  0  0  0  0  0  0  0
    1.7317    2.9119    0.6674 C   0  0  0  1  0  0  0  0  0  0  0  0
    1.8792   -2.6320   -2.0874 C   0  0  0  1  0  0  0  0  0  0  0  0
    3.4473    3.5110   -0.8920 C   0  0  0  1  0  0  0  0  0  0  0  0
    2.8636    2.7044   -1.8519 C   0  0  0  1  0  0  0  0  0  0  0  0
    2.8804    3.6164    0.3649 C   0  0  0  1  0  0  0  0  0  0  0  0
    4.7010    4.2809   -1.2182 C   0  0  0  1  0  0  0  0  0  0  0  0
    1.8473   -0.1085   -1.1552 H   0  0  0  1  0  0  0  0  0  0  0  0
   -0.7267    1.8051    0.5181 H   0  0  0  1  0  0  0  0  0  0  0  0
   -2.4332    1.0105    0.6770 H   0  0  0  1  0  0  0  0  0  0  0  0
   -4.6870   -2.5560    0.1209 H   0  0  0  1  0  0  0  0  0  0  0  0
   -4.5166   -0.2361    0.9125 H   0  0  0  1  0  0  0  0  0  0  0  0
   -2.5438   -4.7487   -0.2464 H   0  0  0  1  0  0  0  0  0  0  0  0
   -3.8492   -4.2601   -1.3535 H   0  0  0  1  0  0  0  0  0  0  0  0
   -2.1566   -4.2260   -1.9033 H   0  0  0  1  0  0  0  0  0  0  0  0
    1.2598    1.3672   -2.3061 H   0  0  0  1  0  0  0  0  0  0  0  0
    1.2893    2.9950    1.6491 H   0  0  0  1  0  0  0  0  0  0  0  0
    1.8518   -2.4691   -3.1648 H   0  0  0  1  0  0  0  0  0  0  0  0
    2.8168   -2.2478   -1.6856 H   0  0  0  1  0  0  0  0  0  0  0  0
    1.8050   -3.6994   -1.8793 H   0  0  0  1  0  0  0  0  0  0  0  0
    3.3069    2.6273   -2.8337 H   0  0  0  1  0  0  0  0  0  0  0  0
    3.3363    4.2507    1.1108 H   0  0  0  1  0  0  0  0  0  0  0  0
    4.4332    5.2595   -1.6166 H   0  0  0  1  0  0  0  0  0  0  0  0
    5.2956    4.4072   -0.3135 H   0  0  0  1  0  0  0  0  0  0  0  0
    5.2812    3.7328   -1.9607 H   0  0  0  1  0  0  0  0  0  0  0  0
  1  4  1  0  0  0  0
  1 10  1  0  0  0  0
  1 22  1  0  0  0  0
  2  5  4  0  0  0  0
  2  9  4  0  0  0  0
  3  4  4  0  0  0  0
  3  5  4  0  0  0  0
  3  8  4  0  0  0  0
  4  7  4  0  0  0  0
  5  6  4  0  0  0  0
  6 11  4  0  0  0  0
  6 13  1  0  0  0  0
  7  9  4  0  0  0  0
  7 21  1  0  0  0  0
  8 12  4  0  0  0  0
  8 23  1  0  0  0  0
  9 16  1  0  0  0  0
 10 14  4  0  0  0  0
 10 15  4  0  0  0  0
 11 12  4  0  0  0  0
 11 24  1  0  0  0  0
 12 25  1  0  0  0  0
 13 26  1  0  0  0  0
 13 27  1  0  0  0  0
 13 28  1  0  0  0  0
 14 18  4  0  0  0  0
 14 29  1  0  0  0  0
 15 19  4  0  0  0  0
 15 30  1  0  0  0  0
 16 31  1  0  0  0  0
 16 32  1  0  0  0  0
 16 33  1  0  0  0  0
 17 18  4  0  0  0  0
 17 19  4  0  0  0  0
 17 20  1  0  0  0  0
 18 34  1  0  0  0  0
 19 35  1  0  0  0  0
 20 36  1  0  0  0  0
 20 37  1  0  0  0  0
 20 38  1  0  0  0  0
M  END
> <Activity>
0.01

> <Mapped(file=2032.csv.activities,property=Cached(PUBCHEM_COMPOUND_CID))>
100

> <MatchIndices>
26 

> <PUBCHEM_ATOM_DEF_STEREO_COUNT>
0

> <PUBCHEM_ATOM_UDEF_STEREO_COUNT>
0

> <PUBCHEM_BONDANNOTATIONS>
10  14  8
10  15  8
11  12  8
14  18  8
15  19  8
17  18  8
17  19  8
2  5  8
2  9  8
3  4  8
3  5  8
3  8  8
4  7  8
5  6  8
6  11  8
7  9  8
8  12  8

> <PUBCHEM_BOND_DEF_STEREO_COUNT>
0

> <PUBCHEM_BOND_UDEF_STEREO_COUNT>
0

> <PUBCHEM_CACTVS_COMPLEXITY>
309

> <PUBCHEM_CACTVS_HBOND_ACCEPTOR>
2

> <PUBCHEM_CACTVS_HBOND_DONOR>
1

> <PUBCHEM_CACTVS_ROTATABLE_BOND>
2

> <PUBCHEM_CACTVS_SUBSKEYS>
AAADceB7AAAAAAAAAAAAAAAAAAAAAAAAAAA8YIAAAAAAAACx9AAAHAAQAAAADAiBHgAywPLIEACgAyRiRACCgCAhAiAImCAwZJgIIOLA0dGEJAhgkADIyAcQgMAOCAACAAACAAAQAAQAAAQAAAAAAAAAAA==

> <PUBCHEM_CACTVS_TAUTO_COUNT>
10

> <PUBCHEM_CACTVS_TPSA>
24.9

> <PUBCHEM_COMPONENT_COUNT>
1

> <PUBCHEM_COMPOUND_CANONICALIZED>
1

> <PUBCHEM_COMPOUND_CID>
715695

> <PUBCHEM_COORDINATE_TYPE>
1
5
255

> <PUBCHEM_EXACT_MASS>
262.146999

> <PUBCHEM_HEAVY_ATOM_COUNT>
20

> <PUBCHEM_ISOTOPIC_ATOM_COUNT>
0

> <PUBCHEM_IUPAC_CAS_NAME>
2,8-dimethyl-N-(4-methylphenyl)-4-quinolinamine

> <PUBCHEM_IUPAC_INCHI>
InChI=1S/C18H18N2/c1-12-7-9-15(10-8-12)20-17-11-14(3)19-18-13(2)5-4-6-16(17)18/h4-11H,1-3H3,(H,19,20)

> <PUBCHEM_IUPAC_INCHIKEY>
LMBGOBJQESYQAC-UHFFFAOYSA-N

> <PUBCHEM_IUPAC_NAME>
2,8-dimethyl-N-(4-methylphenyl)quinolin-4-amine

> <PUBCHEM_IUPAC_OPENEYE_NAME>
2,8-dimethyl-N-(p-tolyl)quinolin-4-amine

> <PUBCHEM_IUPAC_SYSTEMATIC_NAME>
2,8-dimethyl-N-(4-methylphenyl)quinolin-4-amine

> <PUBCHEM_IUPAC_TRADITIONAL_NAME>
(2,8-dimethyl-4-quinolyl)-(p-tolyl)amine

> <PUBCHEM_MOLECULAR_FORMULA>
C18H18N2

> <PUBCHEM_MOLECULAR_WEIGHT>
262.34892

> <PUBCHEM_MONOISOTOPIC_WEIGHT>
262.146999

> <PUBCHEM_OPENEYE_CAN_SMILES>
CC1=CC=C(C=C1)NC2=CC(=NC3=C2C=CC=C3C)C

> <PUBCHEM_OPENEYE_ISO_SMILES>
CC1=CC=C(C=C1)NC2=CC(=NC3=C2C=CC=C3C)C

> <PUBCHEM_TOTAL_CHARGE>
0

> <PUBCHEM_XLOGP3_AA>
4.9

$$$$
Largest isolated from Written by BCL::WriteToMDL,6464138
JMcorina  04211410293D 1   1.00000     0.00000 
CORINA 3.49 0026  01.06.2011
 38 39  0  0  0  0  0  0  0  0999 V2000
    7.1160   17.6111   13.4179 O   0  0  0  1  0  0  0  0  0  0  0  0
    7.1856   11.4967   12.0000 N   0  0  0  1  0  0  0  0  0  0  0  0
    7.1924   11.9793   13.3874 C   0  0  0  1  0  0  0  0  0  0  0  0
    7.1720   13.4861   13.3952 C   0  0  0  1  0  0  0  0  0  0  0  0
    7.2051   10.0285   11.9532 C   0  0  0  1  0  0  0  0  0  0  0  0
    5.9647   14.1599   13.4104 C   0  0  0  1  0  0  0  0  0  0  0  0
    8.3606   14.1925   13.3929 C   0  0  0  1  0  0  0  0  0  0  0  0
    7.1975    9.5716   10.5172 C   0  0  0  1  0  0  0  0  0  0  0  0
    5.9433   15.5412   13.4180 C   0  0  0  1  0  0  0  0  0  0  0  0
    8.3446   15.5738   13.4005 C   0  0  0  1  0  0  0  0  0  0  0  0
    7.1345   16.2522   13.4104 C   0  0  0  1  0  0  0  0  0  0  0  0
    8.1449    8.7559   10.0761 C   0  0  0  1  0  0  0  0  0  0  0  0
    8.1373    8.3077    8.6676 C   0  0  0  1  0  0  0  0  0  0  0  0
    9.1331    7.4492    8.2002 C   0  0  0  1  0  0  0  0  0  0  0  0
    7.1312    8.7367    7.8012 C   0  0  0  1  0  0  0  0  0  0  0  0
    9.1201    7.0342    6.8844 C   0  0  0  1  0  0  0  0  0  0  0  0
    7.1296    8.3143    6.4877 C   0  0  0  1  0  0  0  0  0  0  0  0
    8.1227    7.4673    6.0291 C   0  0  0  1  0  0  0  0  0  0  0  0
    8.3803   18.2771   13.4094 C   0  0  0  1  0  0  0  0  0  0  0  0
    6.3125   11.6013   13.9079 H   0  0  0  1  0  0  0  0  0  0  0  0
    8.0922   11.6255   13.8907 H   0  0  0  1  0  0  0  0  0  0  0  0
    6.3942   11.8641   11.4932 H   0  0  0  1  0  0  0  0  0  0  0  0
    8.1050    9.6612   12.4466 H   0  0  0  1  0  0  0  0  0  0  0  0
    6.3253    9.6370   12.4638 H   0  0  0  1  0  0  0  0  0  0  0  0
    5.0376   13.6059   13.4159 H   0  0  0  1  0  0  0  0  0  0  0  0
    9.3024   13.6639   13.3856 H   0  0  0  1  0  0  0  0  0  0  0  0
    6.4201    9.9085    9.8474 H   0  0  0  1  0  0  0  0  0  0  0  0
    5.0000   16.0670   13.4295 H   0  0  0  1  0  0  0  0  0  0  0  0
    9.2733   16.1251   13.3991 H   0  0  0  1  0  0  0  0  0  0  0  0
    8.9222    8.4190   10.7458 H   0  0  0  1  0  0  0  0  0  0  0  0
    9.9125    7.1107    8.8668 H   0  0  0  1  0  0  0  0  0  0  0  0
    6.3551    9.3976    8.1580 H   0  0  0  1  0  0  0  0  0  0  0  0
    9.8905    6.3700    6.5213 H   0  0  0  1  0  0  0  0  0  0  0  0
    6.3512    8.6453    5.8161 H   0  0  0  1  0  0  0  0  0  0  0  0
    8.1172    7.1398    5.0000 H   0  0  0  1  0  0  0  0  0  0  0  0
    8.2229   19.3557   13.4167 H   0  0  0  1  0  0  0  0  0  0  0  0
    8.9497   17.9871   14.2925 H   0  0  0  1  0  0  0  0  0  0  0  0
    8.9327   17.9966   12.5126 H   0  0  0  1  0  0  0  0  0  0  0  0
  1 11  1  0  0  0  0
  1 19  1  0  0  0  0
  2  3  1  0  0  0  0
  2  5  1  0  0  0  0
  2 22  1  0  0  0  0
  3  4  1  0  0  0  0
  3 20  1  0  0  0  0
  3 21  1  0  0  0  0
  4  6  4  0  0  0  0
  4  7  4  0  0  0  0
  5  8  1  0  0  0  0
  5 23  1  0  0  0  0
  5 24  1  0  0  0  0
  6  9  4  0  0  0  0
  6 25  1  0  0  0  0
  7 10  4  0  0  0  0
  7 26  1  0  0  0  0
  8 12  2  0  0  0  0
  8 27  1  0  0  0  0
  9 11  4  0  0  0  0
  9 28  1  0  0  0  0
 10 11  4  0  0  0  0
 10 29  1  0  0  0  0
 12 13  1  0  0  0  0
 12 30  1  0  0  0  0
 13 14  4  0  0  0  0
 13 15  4  0  0  0  0
 14 16  4  0  0  0  0
 14 31  1  0  0  0  0
 15 17  4  0  0  0  0
 15 32  1  0  0  0  0
 16 18  4  0  0  0  0
 16 33  1  0  0  0  0
 17 18  4  0  0  0  0
 17 34  1  0  0  0  0
 18 35  1  0  0  0  0
 19 36  1  0  0  0  0
 19 37  1  0  0  0  0
 19 38  1  0  0  0  0
M  END
> <Activity>
0.01

> <Mapped(file=2032.csv.activities,property=Cached(PUBCHEM_COMPOUND_CID))>
100

> <MatchIndices>
8 

> <PUBCHEM_ATOM_DEF_STEREO_COUNT>
0

> <PUBCHEM_ATOM_UDEF_STEREO_COUNT>
0

> <PUBCHEM_BONDANNOTATIONS>
10  12  8
11  12  8
14  15  8
14  16  8
15  17  8
16  18  8
17  19  8
18  19  8
5  7  8
5  8  8
7  10  8
8  11  8

> <PUBCHEM_BOND_DEF_STEREO_COUNT>
1

> <PUBCHEM_BOND_UDEF_STEREO_COUNT>
0

> <PUBCHEM_CACTVS_COMPLEXITY>
250

> <PUBCHEM_CACTVS_HBOND_ACCEPTOR>
2

> <PUBCHEM_CACTVS_HBOND_DONOR>
2

> <PUBCHEM_CACTVS_ROTATABLE_BOND>
6

> <PUBCHEM_CACTVS_SUBSKEYS>
AAADceB6IAAEAAAAAAAAAAAAAAAAAAAAAAAwYAAAAAAAAAABQAAAHgAQAAAADATBmAYyBoLABACAAiBCAACCCAAgIAAIiIAODIgMJiKEsRuEMChk0BGIqAeQ0AIOIAAAAAAAAABAAAAAAAAAAAAAAAAAAA==

> <PUBCHEM_CACTVS_TAUTO_COUNT>
1

> <PUBCHEM_CACTVS_TPSA>
21.3

> <PUBCHEM_COMPONENT_COUNT>
2

> <PUBCHEM_COMPOUND_CANONICALIZED>
1

> <PUBCHEM_COMPOUND_CID>
6464138

> <PUBCHEM_COORDINATE_TYPE>
1
5
255

> <PUBCHEM_EXACT_MASS>
289.123342

> <PUBCHEM_HEAVY_ATOM_COUNT>
20

> <PUBCHEM_ISOTOPIC_ATOM_COUNT>
0

> <PUBCHEM_IUPAC_CAS_NAME>
(E)-N-[(4-methoxyphenyl)methyl]-3-phenyl-2-propen-1-amine hydrochloride

> <PUBCHEM_IUPAC_INCHI>
InChI=1S/C17H19NO.ClH/c1-19-17-11-9-16(10-12-17)14-18-13-5-8-15-6-3-2-4-7-15;/h2-12,18H,13-14H2,1H3;1H/b8-5+;

> <PUBCHEM_IUPAC_INCHIKEY>
ZCFJNZIWAPPATE-HAAWTFQLSA-N

> <PUBCHEM_IUPAC_NAME>
(E)-N-[(4-methoxyphenyl)methyl]-3-phenylprop-2-en-1-amine hydrochloride

> <PUBCHEM_IUPAC_OPENEYE_NAME>
(E)-N-[(4-methoxyphenyl)methyl]-3-phenyl-prop-2-en-1-amine hydrochloride

> <PUBCHEM_IUPAC_SYSTEMATIC_NAME>
(E)-N-[(4-methoxyphenyl)methyl]-3-phenyl-prop-2-en-1-amine hydrochloride

> <PUBCHEM_IUPAC_TRADITIONAL_NAME>
[(E)-cinnamyl]-p-anisyl-amine hydrochloride

> <PUBCHEM_MOLECULAR_FORMULA>
C17H20ClNO

> <PUBCHEM_MOLECULAR_WEIGHT>
289.7998

> <PUBCHEM_MONOISOTOPIC_WEIGHT>
289.123342

> <PUBCHEM_OPENEYE_CAN_SMILES>
COC1=CC=C(C=C1)CNCC=CC2=CC=CC=C2.Cl

> <PUBCHEM_OPENEYE_ISO_SMILES>
COC1=CC=C(C=C1)CNC/C=C/C2=CC=CC=C2.Cl

> <PUBCHEM_TOTAL_CHARGE>
0

$$$$
Largest isolated from Written by BCL::WriteToMDL,2924017
JMcorina  04211410293D 1   1.00000     0.00000 
CORINA 3.49 0026  01.06.2011
 52 54  0  0  0  0  0  0  0  0999 V2000
   -0.0173    1.4248    0.0099 O   0  0  0  1  0  0  0  0  0  0  0  0
   -2.8280   -4.0619    0.0072 N   0  0  0  1  0  0  0  0  0  0  0  0
   -3.5252   -6.6579    0.9454 N   0  0  0  1  0  0  0  0  0  0  0  0
   -4.1741   -4.6056   -0.2211 C   0  0  0  1  0  0  0  0  0  0  0  0
   -2.2553   -4.5877    1.2543 C   0  0  0  1  0  0  0  0  0  0  0  0
   -2.1791   -6.1142    1.1737 C   0  0  0  1  0  0  0  0  0  0  0  0
   -4.0979   -6.1321   -0.3016 C   0  0  0  1  0  0  0  0  0  0  0  0
   -2.8479   -2.5931    0.0153 C   0  0  0  1  0  0  0  0  0  0  0  0
   -1.4126   -2.0635    0.0045 C   0  0  0  1  0  0  0  0  0  0  0  0
   -1.4333   -0.5336    0.0129 C   0  0  0  1  0  0  0  0  0  0  0  0
   -3.5053   -8.1267    0.9374 C   0  0  0  1  0  0  0  0  0  0  0  0
    0.0021   -0.0041    0.0020 C   0  0  0  1  0  0  0  0  0  0  0  0
    1.1845    2.0579    0.0018 C   0  0  0  1  0  0  0  0  0  0  0  0
    1.2417    3.4551    0.0088 C   0  0  0  1  0  0  0  0  0  0  0  0
    2.3581    1.3217   -0.0076 C   0  0  0  1  0  0  0  0  0  0  0  0
   -0.0094    4.2518    0.0250 C   0  0  0  1  0  0  0  0  0  0  0  0
    2.4785    4.0951    0.0009 C   0  0  0  1  0  0  0  0  0  0  0  0
    3.5804    1.9671   -0.0153 C   0  0  0  1  0  0  0  0  0  0  0  0
    3.6400    3.3492   -0.0137 C   0  0  0  1  0  0  0  0  0  0  0  0
   -0.1743    5.2761    0.9555 C   0  0  0  1  0  0  0  0  0  0  0  0
   -1.0219    3.9826   -0.8941 C   0  0  0  1  0  0  0  0  0  0  0  0
   -1.3402    6.0144    0.9657 C   0  0  0  1  0  0  0  0  0  0  0  0
   -2.1837    4.7274   -0.8747 C   0  0  0  1  0  0  0  0  0  0  0  0
   -2.3441    5.7395    0.0546 C   0  0  0  1  0  0  0  0  0  0  0  0
   -1.2540   -4.1805    1.3947 H   0  0  0  1  0  0  0  0  0  0  0  0
   -2.8868   -4.2990    2.0946 H   0  0  0  1  0  0  0  0  0  0  0  0
   -4.8273   -4.3171    0.6024 H   0  0  0  1  0  0  0  0  0  0  0  0
   -4.5717   -4.2115   -1.1563 H   0  0  0  1  0  0  0  0  0  0  0  0
   -1.7816   -6.5083    2.1090 H   0  0  0  1  0  0  0  0  0  0  0  0
   -1.5259   -6.4027    0.3503 H   0  0  0  1  0  0  0  0  0  0  0  0
   -3.4664   -6.4208   -1.1419 H   0  0  0  1  0  0  0  0  0  0  0  0
   -5.0992   -6.5393   -0.4420 H   0  0  0  1  0  0  0  0  0  0  0  0
   -3.3751   -2.2320   -0.8677 H   0  0  0  1  0  0  0  0  0  0  0  0
   -3.3581   -2.2415    0.9121 H   0  0  0  1  0  0  0  0  0  0  0  0
   -0.8854   -2.4246    0.8875 H   0  0  0  1  0  0  0  0  0  0  0  0
   -0.9024   -2.4150   -0.8923 H   0  0  0  1  0  0  0  0  0  0  0  0
   -1.9605   -0.1726   -0.8702 H   0  0  0  1  0  0  0  0  0  0  0  0
   -1.9435   -0.1821    0.9097 H   0  0  0  1  0  0  0  0  0  0  0  0
   -3.1397   -8.4904    1.8977 H   0  0  0  1  0  0  0  0  0  0  0  0
   -4.5140   -8.5028    0.7665 H   0  0  0  1  0  0  0  0  0  0  0  0
   -2.8474   -8.4768    0.1419 H   0  0  0  1  0  0  0  0  0  0  0  0
    0.5123   -0.3556   -0.8948 H   0  0  0  1  0  0  0  0  0  0  0  0
    0.5293   -0.3651    0.8851 H   0  0  0  1  0  0  0  0  0  0  0  0
    2.3179    0.2424   -0.0085 H   0  0  0  1  0  0  0  0  0  0  0  0
    2.5289    5.1740    0.0058 H   0  0  0  1  0  0  0  0  0  0  0  0
    4.4931    1.3897   -0.0222 H   0  0  0  1  0  0  0  0  0  0  0  0
    4.5987    3.8465   -0.0199 H   0  0  0  1  0  0  0  0  0  0  0  0
    0.6087    5.4914    1.6675 H   0  0  0  1  0  0  0  0  0  0  0  0
   -0.8976    3.1930   -1.6202 H   0  0  0  1  0  0  0  0  0  0  0  0
   -1.4693    6.8082    1.6866 H   0  0  0  1  0  0  0  0  0  0  0  0
   -2.9688    4.5200   -1.5866 H   0  0  0  1  0  0  0  0  0  0  0  0
   -3.2548    6.3198    0.0661 H   0  0  0  1  0  0  0  0  0  0  0  0
  1 12  1  0  0  0  0
  1 13  1  0  0  0  0
  2  4  1  0  0  0  0
  2  5  1  0  0  0  0
  2  8  1  0  0  0  0
  3  6  1  0  0  0  0
  3  7  1  0  0  0  0
  3 11  1  0  0  0  0
  4  7  1  0  0  0  0
  4 27  1  0  0  0  0
  4 28  1  0  0  0  0
  5  6  1  0  0  0  0
  5 25  1  0  0  0  0
  5 26  1  0  0  0  0
  6 29  1  0  0  0  0
  6 30  1  0  0  0  0
  7 31  1  0  0  0  0
  7 32  1  0  0  0  0
  8  9  1  0  0  0  0
  8 33  1  0  0  0  0
  8 34  1  0  0  0  0
  9 10  1  0  0  0  0
  9 35  1  0  0  0  0
  9 36  1  0  0  0  0
 10 12  1  0  0  0  0
 10 37  1  0  0  0  0
 10 38  1  0  0  0  0
 11 39  1  0  0  0  0
 11 40  1  0  0  0  0
 11 41  1  0  0  0  0
 12 42  1  0  0  0  0
 12 43  1  0  0  0  0
 13 14  4  0  0  0  0
 13 15  4  0  0  0  0
 14 16  1  0  0  0  0
 14 17  4  0  0  0  0
 15 18  4  0  0  0  0
 15 44  1  0  0  0  0
 16 20  4  0  0  0  0
 16 21  4  0  0  0  0
 17 19  4  0  0  0  0
 17 45  1  0  0  0  0
 18 19  4  0  0  0  0
 18 46  1  0  0  0  0
 19 47  1  0  0  0  0
 20 22  4  0  0  0  0
 20 48  1  0  0  0  0
 21 23  4  0  0  0  0
 21 49  1  0  0  0  0
 22 24  4  0  0  0  0
 22 50  1  0  0  0  0
 23 24  4  0  0  0  0
 23 51  1  0  0  0  0
 24 52  1  0  0  0  0
M  END
> <Activity>
0.01

> <Mapped(file=2032.csv.activities,property=Cached(PUBCHEM_COMPOUND_CID))>
100

> <MatchIndices>
129 

> <PUBCHEM_ATOM_DEF_STEREO_COUNT>
0

> <PUBCHEM_ATOM_UDEF_STEREO_COUNT>
0

> <PUBCHEM_BONDANNOTATIONS>
17  18  8
17  19  8
18  21  8
19  22  8
20  24  8
20  25  8
21  23  8
22  23  8
24  26  8
25  27  8
26  28  8
27  28  8

> <PUBCHEM_BOND_DEF_STEREO_COUNT>
0

> <PUBCHEM_BOND_UDEF_STEREO_COUNT>
0

> <PUBCHEM_CACTVS_COMPLEXITY>
406

> <PUBCHEM_CACTVS_HBOND_ACCEPTOR>
7

> <PUBCHEM_CACTVS_HBOND_DONOR>
2

> <PUBCHEM_CACTVS_ROTATABLE_BOND>
8

> <PUBCHEM_CACTVS_SUBSKEYS>
AAADceB7OAAAAAAAAAAAAAAAAAAAAAAAAAA8YIAAAAAAAAABQAAAHgAACAAADAThmAYyDoMABgCIAiDSCAICCAAgIAAIiABOCIgNZiKEsRqWOCCkwBGJqAegwOAOgAAAAAAIAAAAAAAAABAAAAAAAAAAAA==

> <PUBCHEM_CACTVS_TAUTO_COUNT>
1

> <PUBCHEM_CACTVS_TPSA>
90.3

> <PUBCHEM_COMPONENT_COUNT>
2

> <PUBCHEM_COMPOUND_CANONICALIZED>
1

> <PUBCHEM_COMPOUND_CID>
2924017

> <PUBCHEM_COORDINATE_TYPE>
1
5
255

> <PUBCHEM_EXACT_MASS>
414.215472

> <PUBCHEM_HEAVY_ATOM_COUNT>
30

> <PUBCHEM_ISOTOPIC_ATOM_COUNT>
0

> <PUBCHEM_IUPAC_CAS_NAME>
1-methyl-4-[4-(2-phenylphenoxy)butyl]piperazine; oxalic acid

> <PUBCHEM_IUPAC_INCHI>
InChI=1S/C21H28N2O.C2H2O4/c1-22-14-16-23(17-15-22)13-7-8-18-24-21-12-6-5-11-20(21)19-9-3-2-4-10-19;3-1(4)2(5)6/h2-6,9-12H,7-8,13-18H2,1H3;(H,3,4)(H,5,6)

> <PUBCHEM_IUPAC_INCHIKEY>
YFHFDSAGVAEAJF-UHFFFAOYSA-N

> <PUBCHEM_IUPAC_NAME>
1-methyl-4-[4-(2-phenylphenoxy)butyl]piperazine; oxalic acid

> <PUBCHEM_IUPAC_OPENEYE_NAME>
1-methyl-4-[4-(2-phenylphenoxy)butyl]piperazine; oxalic acid

> <PUBCHEM_IUPAC_SYSTEMATIC_NAME>
ethanedioic acid; 1-methyl-4-[4-(2-phenylphenoxy)butyl]piperazine

> <PUBCHEM_IUPAC_TRADITIONAL_NAME>
1-methyl-4-[4-(2-phenylphenoxy)butyl]piperazine; oxalic acid

> <PUBCHEM_MOLECULAR_FORMULA>
C23H30N2O5

> <PUBCHEM_MOLECULAR_WEIGHT>
414.4947

> <PUBCHEM_MONOISOTOPIC_WEIGHT>
414.215472

> <PUBCHEM_OPENEYE_CAN_SMILES>
CN1CCN(CC1)CCCCOC2=CC=CC=C2C3=CC=CC=C3.C(=O)(C(=O)O)O

> <PUBCHEM_OPENEYE_ISO_SMILES>
CN1CCN(CC1)CCCCOC2=CC=CC=C2C3=CC=CC=C3.C(=O)(C(=O)O)O

> <PUBCHEM_TOTAL_CHARGE>
0

$$$$
Largest isolated from Written by BCL::WriteToMDL,667701
JMcorina  04211410293D 1   1.00000     0.00000 
CORINA 3.49 0026  01.06.2011
 39 41  0  0  0  0  0  0  0  0999 V2000
   -0.0172    1.4168    0.0098 S   0  0  0  1  0  0  0  0  0  0  0  0
    0.0021   -0.0041    0.0020 O   0  0  0  1  0  0  0  0  0  0  0  0
    1.1617    2.2101    0.0028 O   0  0  0  1  0  0  0  0  0  0  0  0
   -3.4599    0.5346    3.6743 O   0  0  0  1  0  0  0  0  0  0  0  0
   -3.0636    3.0214    4.7904 O   0  0  0  1  0  0  0  0  0  0  0  0
   -0.9002    1.8797   -1.3124 N   0  0  0  1  0  0  0  0  0  0  0  0
   -0.7907    3.1784   -1.9823 C   0  0  0  1  0  0  0  0  0  0  0  0
   -1.8034    3.1224   -3.1378 C   0  0  0  1  0  0  0  0  0  0  0  0
   -1.8531    1.0877   -1.9549 C   0  0  0  1  0  0  0  0  0  0  0  0
   -2.4287    1.7499   -3.0284 C   0  0  0  1  0  0  0  0  0  0  0  0
   -0.9297    1.8941    1.4396 C   0  0  0  1  0  0  0  0  0  0  0  0
   -2.2697   -0.2115   -1.6578 C   0  0  0  1  0  0  0  0  0  0  0  0
   -3.4010    1.1337   -3.7918 C   0  0  0  1  0  0  0  0  0  0  0  0
   -3.2366   -0.8243   -2.4262 C   0  0  0  1  0  0  0  0  0  0  0  0
   -3.8138   -0.1502   -3.4865 C   0  0  0  1  0  0  0  0  0  0  0  0
   -1.8427    1.0197    1.9988 C   0  0  0  1  0  0  0  0  0  0  0  0
   -0.7268    3.1403    2.0030 C   0  0  0  1  0  0  0  0  0  0  0  0
   -2.5610    1.3935    3.1232 C   0  0  0  1  0  0  0  0  0  0  0  0
   -1.4402    3.5195    3.1247 C   0  0  0  1  0  0  0  0  0  0  0  0
   -2.3610    2.6499    3.6869 C   0  0  0  1  0  0  0  0  0  0  0  0
   -3.6133   -0.7378    3.0421 C   0  0  0  1  0  0  0  0  0  0  0  0
   -2.8064    4.3257    5.3146 C   0  0  0  1  0  0  0  0  0  0  0  0
   -1.0478    3.9824   -1.2928 H   0  0  0  1  0  0  0  0  0  0  0  0
    0.2181    3.3199   -2.3702 H   0  0  0  1  0  0  0  0  0  0  0  0
   -2.5614    3.8963   -3.0170 H   0  0  0  1  0  0  0  0  0  0  0  0
   -1.2945    3.2332   -4.0953 H   0  0  0  1  0  0  0  0  0  0  0  0
   -1.8324   -0.7387   -0.8228 H   0  0  0  1  0  0  0  0  0  0  0  0
   -3.8401    1.6561   -4.6290 H   0  0  0  1  0  0  0  0  0  0  0  0
   -3.5540   -1.8294   -2.1907 H   0  0  0  1  0  0  0  0  0  0  0  0
   -4.5744   -0.6308   -4.0840 H   0  0  0  1  0  0  0  0  0  0  0  0
   -1.9963    0.0452    1.5592 H   0  0  0  1  0  0  0  0  0  0  0  0
   -0.0092    3.8188    1.5660 H   0  0  0  1  0  0  0  0  0  0  0  0
   -1.2796    4.4934    3.5631 H   0  0  0  1  0  0  0  0  0  0  0  0
   -3.9387   -0.5946    2.0117 H   0  0  0  1  0  0  0  0  0  0  0  0
   -2.6597   -1.2657    3.0520 H   0  0  0  1  0  0  0  0  0  0  0  0
   -4.3584   -1.3235    3.5804 H   0  0  0  1  0  0  0  0  0  0  0  0
   -1.7563    4.4035    5.5961 H   0  0  0  1  0  0  0  0  0  0  0  0
   -3.0356    5.0739    4.5558 H   0  0  0  1  0  0  0  0  0  0  0  0
   -3.4312    4.4945    6.1917 H   0  0  0  1  0  0  0  0  0  0  0  0
  1  2  2  0  0  0  0
  1  3  2  0  0  0  0
  1  6  1  0  0  0  0
  1 11  1  0  0  0  0
  4 18  1  0  0  0  0
  4 21  1  0  0  0  0
  5 20  1  0  0  0  0
  5 22  1  0  0  0  0
  6  7  1  0  0  0  0
  6  9  1  0  0  0  0
  7  8  1  0  0  0  0
  7 23  1  0  0  0  0
  7 24  1  0  0  0  0
  8 10  1  0  0  0  0
  8 25  1  0  0  0  0
  8 26  1  0  0  0  0
  9 10  4  0  0  0  0
  9 12  4  0  0  0  0
 10 13  4  0  0  0  0
 11 16  4  0  0  0  0
 11 17  4  0  0  0  0
 12 14  4  0  0  0  0
 12 27  1  0  0  0  0
 13 15  4  0  0  0  0
 13 28  1  0  0  0  0
 14 15  4  0  0  0  0
 14 29  1  0  0  0  0
 15 30  1  0  0  0  0
 16 18  4  0  0  0  0
 16 31  1  0  0  0  0
 17 19  4  0  0  0  0
 17 32  1  0  0  0  0
 18 20  4  0  0  0  0
 19 20  4  0  0  0  0
 19 33  1  0  0  0  0
 21 34  1  0  0  0  0
 21 35  1  0  0  0  0
 21 36  1  0  0  0  0
 22 37  1  0  0  0  0
 22 38  1  0  0  0  0
 22 39  1  0  0  0  0
M  END
> <Activity>
0.01

> <Mapped(file=2032.csv.activities,property=Cached(PUBCHEM_COMPOUND_CID))>
100

> <MatchIndices>
139 

> <PUBCHEM_ATOM_DEF_STEREO_COUNT>
0

> <PUBCHEM_ATOM_UDEF_STEREO_COUNT>
0

> <PUBCHEM_BONDANNOTATIONS>
10  13  8
11  16  8
11  17  8
12  14  8
13  15  8
14  15  8
16  18  8
17  19  8
18  20  8
19  20  8
9  10  8
9  12  8

> <PUBCHEM_BOND_DEF_STEREO_COUNT>
0

> <PUBCHEM_BOND_UDEF_STEREO_COUNT>
0

> <PUBCHEM_CACTVS_COMPLEXITY>
475

> <PUBCHEM_CACTVS_HBOND_ACCEPTOR>
5

> <PUBCHEM_CACTVS_HBOND_DONOR>
0

> <PUBCHEM_CACTVS_ROTATABLE_BOND>
4

> <PUBCHEM_CACTVS_SUBSKEYS>
AAADceB6OABAAAAAAAAAAAAAAAAAAWAAAAAwYAAAAAAAAFgBQAAAHgQAQAAADAzB2AYyx4IABAKAAiRCQHDCCBAhIgAIiBgO7IgNJiLEsZuEMCpkwBHK6AeQwIAOAIAABAACQAABAAAIAASAAAAAAAAAAA==

> <PUBCHEM_CACTVS_TAUTO_COUNT>
1

> <PUBCHEM_CACTVS_TPSA>
64.2

> <PUBCHEM_COMPONENT_COUNT>
1

> <PUBCHEM_COMPOUND_CANONICALIZED>
1

> <PUBCHEM_COMPOUND_CID>
667701

> <PUBCHEM_COORDINATE_TYPE>
1
5
255

> <PUBCHEM_EXACT_MASS>
319.087829

> <PUBCHEM_HEAVY_ATOM_COUNT>
22

> <PUBCHEM_ISOTOPIC_ATOM_COUNT>
0

> <PUBCHEM_IUPAC_CAS_NAME>
1-(3,4-dimethoxyphenyl)sulfonyl-2,3-dihydroindole

> <PUBCHEM_IUPAC_INCHI>
InChI=1S/C16H17NO4S/c1-20-15-8-7-13(11-16(15)21-2)22(18,19)17-10-9-12-5-3-4-6-14(12)17/h3-8,11H,9-10H2,1-2H3

> <PUBCHEM_IUPAC_INCHIKEY>
OZLLCTRRCDHJDG-UHFFFAOYSA-N

> <PUBCHEM_IUPAC_NAME>
1-(3,4-dimethoxyphenyl)sulfonyl-2,3-dihydroindole

> <PUBCHEM_IUPAC_OPENEYE_NAME>
1-(3,4-dimethoxyphenyl)sulfonylindoline

> <PUBCHEM_IUPAC_SYSTEMATIC_NAME>
1-(3,4-dimethoxyphenyl)sulfonyl-2,3-dihydroindole

> <PUBCHEM_IUPAC_TRADITIONAL_NAME>
1-(3,4-dimethoxyphenyl)sulfonylindoline

> <PUBCHEM_MOLECULAR_FORMULA>
C16H17NO4S

> <PUBCHEM_MOLECULAR_WEIGHT>
319.37548

> <PUBCHEM_MONOISOTOPIC_WEIGHT>
319.087829

> <PUBCHEM_OPENEYE_CAN_SMILES>
COC1=C(C=C(C=C1)S(=O)(=O)N2CCC3=CC=CC=C32)OC

> <PUBCHEM_OPENEYE_ISO_SMILES>
COC1=C(C=C(C=C1)S(=O)(=O)N2CCC3=CC=CC=C32)OC

> <PUBCHEM_TOTAL_CHARGE>
0

> <PUBCHEM_XLOGP3_AA>
2.6

$$$$
Largest isolated from Written by BCL::WriteToMDL,2935998
JMcorina  04211410293D 1   1.00000     0.00000 
CORINA 3.49 0026  01.06.2011
 50 51  0  0  0  0  0  0  0  0999 V2000
   -0.0173    1.4248    0.0099 O   0  0  0  1  0  0  0  0  0  0  0  0
    0.5393    3.9622    1.2393 O   0  0  0  1  0  0  0  0  0  0  0  0
   -2.1072   -0.1473   -1.2339 N   0  0  0  1  0  0  0  0  0  0  0  0
   -3.4910   -0.6398   -1.2589 C   0  0  0  1  0  0  0  0  0  0  0  0
   -4.3299    0.2427   -2.1853 C   0  0  0  1  0  0  0  0  0  0  0  0
   -1.4333   -0.5336    0.0129 C   0  0  0  1  0  0  0  0  0  0  0  0
   -3.5101   -2.0810   -1.7722 C   0  0  0  1  0  0  0  0  0  0  0  0
    0.0021   -0.0041    0.0020 C   0  0  0  1  0  0  0  0  0  0  0  0
   -4.4137    1.6560   -1.6053 C   0  0  0  1  0  0  0  0  0  0  0  0
    1.2801    2.0237    0.0007 C   0  0  0  1  0  0  0  0  0  0  0  0
    1.1386    3.5471    0.0102 C   0  0  0  1  0  0  0  0  0  0  0  0
   -0.2403    5.7734    2.5880 C   0  0  0  1  0  0  0  0  0  0  0  0
    0.3414    5.2953    1.4097 C   0  0  0  1  0  0  0  0  0  0  0  0
   -0.6438    4.8273    3.6568 C   0  0  0  1  0  0  0  0  0  0  0  0
   -0.4339    7.1422    2.7559 C   0  0  0  1  0  0  0  0  0  0  0  0
    0.7157    6.1861    0.4168 C   0  0  0  1  0  0  0  0  0  0  0  0
   -0.0515    8.0191    1.7607 C   0  0  0  1  0  0  0  0  0  0  0  0
   -0.2474    5.0499    4.9742 C   0  0  0  1  0  0  0  0  0  0  0  0
   -1.4255    3.7155    3.3482 C   0  0  0  1  0  0  0  0  0  0  0  0
    0.5142    7.5424    0.5916 C   0  0  0  1  0  0  0  0  0  0  0  0
   -0.6262    4.1666    5.9646 C   0  0  0  1  0  0  0  0  0  0  0  0
   -1.7984    2.8388    4.3467 C   0  0  0  1  0  0  0  0  0  0  0  0
   -1.3977    3.0620    5.6518 C   0  0  0  1  0  0  0  0  0  0  0  0
   -3.9064   -0.6073   -0.2517 H   0  0  0  1  0  0  0  0  0  0  0  0
   -3.8644    0.2812   -3.1702 H   0  0  0  1  0  0  0  0  0  0  0  0
   -5.3332   -0.1739   -2.2737 H   0  0  0  1  0  0  0  0  0  0  0  0
   -1.5930   -0.4727   -2.0387 H   0  0  0  1  0  0  0  0  0  0  0  0
   -1.9701   -0.1109    0.8621 H   0  0  0  1  0  0  0  0  0  0  0  0
   -1.4190   -1.6203    0.0965 H   0  0  0  1  0  0  0  0  0  0  0  0
   -2.9125   -2.7098   -1.1122 H   0  0  0  1  0  0  0  0  0  0  0  0
   -4.5369   -2.4465   -1.7907 H   0  0  0  1  0  0  0  0  0  0  0  0
   -3.0947   -2.1135   -2.7794 H   0  0  0  1  0  0  0  0  0  0  0  0
    0.5123   -0.3556   -0.8948 H   0  0  0  1  0  0  0  0  0  0  0  0
    0.5293   -0.3651    0.8851 H   0  0  0  1  0  0  0  0  0  0  0  0
   -5.0113    2.2848   -2.2653 H   0  0  0  1  0  0  0  0  0  0  0  0
   -4.8792    1.6176   -0.6204 H   0  0  0  1  0  0  0  0  0  0  0  0
   -3.4103    2.0726   -1.5169 H   0  0  0  1  0  0  0  0  0  0  0  0
    1.8338    1.7047    0.8837 H   0  0  0  1  0  0  0  0  0  0  0  0
    1.8168    1.7143   -0.8961 H   0  0  0  1  0  0  0  0  0  0  0  0
    0.5101    3.8589   -0.8239 H   0  0  0  1  0  0  0  0  0  0  0  0
    2.1235    4.0041   -0.0863 H   0  0  0  1  0  0  0  0  0  0  0  0
   -0.8831    7.5173    3.6636 H   0  0  0  1  0  0  0  0  0  0  0  0
    1.1656    5.8206   -0.4944 H   0  0  0  1  0  0  0  0  0  0  0  0
    0.3553    5.9119    5.2195 H   0  0  0  1  0  0  0  0  0  0  0  0
   -1.7392    3.5406    2.3297 H   0  0  0  1  0  0  0  0  0  0  0  0
   -0.2020    9.0805    1.8917 H   0  0  0  1  0  0  0  0  0  0  0  0
    0.8076    8.2338   -0.1845 H   0  0  0  1  0  0  0  0  0  0  0  0
   -0.3193    4.3379    6.9858 H   0  0  0  1  0  0  0  0  0  0  0  0
   -2.4042    1.9770    4.1088 H   0  0  0  1  0  0  0  0  0  0  0  0
   -1.6918    2.3733    6.4300 H   0  0  0  1  0  0  0  0  0  0  0  0
  1  8  1  0  0  0  0
  1 10  1  0  0  0  0
  2 11  1  0  0  0  0
  2 13  1  0  0  0  0
  3  4  1  0  0  0  0
  3  6  1  0  0  0  0
  3 27  1  0  0  0  0
  4  5  1  0  0  0  0
  4  7  1  0  0  0  0
  4 24  1  0  0  0  0
  5  9  1  0  0  0  0
  5 25  1  0  0  0  0
  5 26  1  0  0  0  0
  6  8  1  0  0  0  0
  6 28  1  0  0  0  0
  6 29  1  0  0  0  0
  7 30  1  0  0  0  0
  7 31  1  0  0  0  0
  7 32  1  0  0  0  0
  8 33  1  0  0  0  0
  8 34  1  0  0  0  0
  9 35  1  0  0  0  0
  9 36  1  0  0  0  0
  9 37  1  0  0  0  0
 10 11  1  0  0  0  0
 10 38  1  0  0  0  0
 10 39  1  0  0  0  0
 11 40  1  0  0  0  0
 11 41  1  0  0  0  0
 12 13  4  0  0  0  0
 12 14  1  0  0  0  0
 12 15  4  0  0  0  0
 13 16  4  0  0  0  0
 14 18  4  0  0  0  0
 14 19  4  0  0  0  0
 15 17  4  0  0  0  0
 15 42  1  0  0  0  0
 16 20  4  0  0  0  0
 16 43  1  0  0  0  0
 17 20  4  0  0  0  0
 17 46  1  0  0  0  0
 18 21  4  0  0  0  0
 18 44  1  0  0  0  0
 19 22  4  0  0  0  0
 19 45  1  0  0  0  0
 20 47  1  0  0  0  0
 21 23  4  0  0  0  0
 21 48  1  0  0  0  0
 22 23  4  0  0  0  0
 22 49  1  0  0  0  0
 23 50  1  0  0  0  0
M  END
> <Activity>
0.01

> <Mapped(file=2032.csv.activities,property=Cached(PUBCHEM_COMPOUND_CID))>
100

> <MatchIndices>
103 

> <PUBCHEM_ATOM_DEF_STEREO_COUNT>
0

> <PUBCHEM_ATOM_UDEF_STEREO_COUNT>
1

> <PUBCHEM_BONDANNOTATIONS>
16  17  8
16  19  8
17  20  8
18  22  8
18  23  8
19  21  8
20  24  8
21  24  8
22  25  8
23  26  8
25  27  8
26  27  8
8  11  3

> <PUBCHEM_BOND_DEF_STEREO_COUNT>
0

> <PUBCHEM_BOND_UDEF_STEREO_COUNT>
0

> <PUBCHEM_CACTVS_COMPLEXITY>
363

> <PUBCHEM_CACTVS_HBOND_ACCEPTOR>
7

> <PUBCHEM_CACTVS_HBOND_DONOR>
3

> <PUBCHEM_CACTVS_ROTATABLE_BOND>
11

> <PUBCHEM_CACTVS_SUBSKEYS>
AAADceB6OAAAAAAAAAAAAAAAAAAAAAAAAAAwYAAAAAAAAAABQAAAHgAQCAAADCzhmAYyDoLABgCIAiDSCAICCAAgIAAIiIBOCIgPJiKEMRqHOCCk0BGbqAeAwOAOgAAAAAAIAAAAAAAAABAAAAAAAAAAAA==

> <PUBCHEM_CACTVS_TAUTO_COUNT>
1

> <PUBCHEM_CACTVS_TPSA>
105

> <PUBCHEM_COMPONENT_COUNT>
2

> <PUBCHEM_COMPOUND_CANONICALIZED>
1

> <PUBCHEM_COMPOUND_CID>
2935998

> <PUBCHEM_COORDINATE_TYPE>
1
5
255

> <PUBCHEM_EXACT_MASS>
403.199488

> <PUBCHEM_HEAVY_ATOM_COUNT>
29

> <PUBCHEM_ISOTOPIC_ATOM_COUNT>
0

> <PUBCHEM_IUPAC_CAS_NAME>
oxalic acid; N-[2-[2-(2-phenylphenoxy)ethoxy]ethyl]-2-butanamine

> <PUBCHEM_IUPAC_INCHI>
InChI=1S/C20H27NO2.C2H2O4/c1-3-17(2)21-13-14-22-15-16-23-20-12-8-7-11-19(20)18-9-5-4-6-10-18;3-1(4)2(5)6/h4-12,17,21H,3,13-16H2,1-2H3;(H,3,4)(H,5,6)

> <PUBCHEM_IUPAC_INCHIKEY>
GXABYAWOXQTSQF-UHFFFAOYSA-N

> <PUBCHEM_IUPAC_NAME>
oxalic acid; N-[2-[2-(2-phenylphenoxy)ethoxy]ethyl]butan-2-amine

> <PUBCHEM_IUPAC_OPENEYE_NAME>
oxalic acid; N-[2-[2-(2-phenylphenoxy)ethoxy]ethyl]butan-2-amine

> <PUBCHEM_IUPAC_SYSTEMATIC_NAME>
ethanedioic acid; N-[2-[2-(2-phenylphenoxy)ethoxy]ethyl]butan-2-amine

> <PUBCHEM_IUPAC_TRADITIONAL_NAME>
oxalic acid; 2-[2-(2-phenylphenoxy)ethoxy]ethyl-sec-butyl-amine

> <PUBCHEM_MOLECULAR_FORMULA>
C22H29NO6

> <PUBCHEM_MOLECULAR_WEIGHT>
403.46876

> <PUBCHEM_MONOISOTOPIC_WEIGHT>
403.199488

> <PUBCHEM_OPENEYE_CAN_SMILES>
CCC(C)NCCOCCOC1=CC=CC=C1C2=CC=CC=C2.C(=O)(C(=O)O)O

> <PUBCHEM_OPENEYE_ISO_SMILES>
CCC(C)NCCOCCOC1=CC=CC=C1C2=CC=CC=C2.C(=O)(C(=O)O)O

> <PUBCHEM_TOTAL_CHARGE>
0

$$$$
Largest isolated from Written by BCL::WriteToMDL,24746733
JMcorina  04211410293D 1   1.00000     0.00000 
CORINA 3.49 0026  01.06.2011
 53 55  0  0  0  0  0  0  0  0999 V2000
   -0.0173    1.4261    0.0099 O   0  0  0  1  0  0  0  0  0  0  0  0
   -1.3022   -0.5050    0.3020 O   0  0  0  1  0  0  0  0  0  0  0  0
    2.2557    4.1029   -0.3787 O   0  0  0  1  0  0  0  0  0  0  0  0
   -8.3283   -2.2369   -0.1572 O   0  0  0  1  0  0  0  0  0  0  0  0
    0.0550    4.1342   -0.6780 N   0  0  0  1  0  0  0  0  0  0  0  0
    2.3925    0.0197    0.6810 C   0  0  0  1  0  0  0  0  0  0  0  0
    0.9967   -0.4788    1.0700 C   0  0  0  1  0  0  0  0  0  0  0  0
    0.0021   -0.0041    0.0020 C   0  0  0  1  0  0  0  0  0  0  0  0
    3.3303   -0.1511    1.8483 C   0  0  0  1  0  0  0  0  0  0  0  0
    2.3183    1.4749    0.3059 C   0  0  0  1  0  0  0  0  0  0  0  0
    1.1751    2.0696    0.0020 C   0  0  0  1  0  0  0  0  0  0  0  0
    4.4526   -0.9497    1.7190 C   0  0  0  1  0  0  0  0  0  0  0  0
    3.0684    0.4960    3.0426 C   0  0  0  1  0  0  0  0  0  0  0  0
   -2.2610   -0.2878   -0.7351 C   0  0  0  1  0  0  0  0  0  0  0  0
    1.2008    3.4985   -0.3626 C   0  0  0  1  0  0  0  0  0  0  0  0
   -3.5931   -0.8529   -0.3141 C   0  0  0  1  0  0  0  0  0  0  0  0
    5.3151   -1.1102    2.7838 C   0  0  0  1  0  0  0  0  0  0  0  0
    3.9233    0.3442    4.1149 C   0  0  0  1  0  0  0  0  0  0  0  0
    5.0538   -0.4645    3.9929 C   0  0  0  1  0  0  0  0  0  0  0  0
   -4.4956   -0.0594    0.3690 C   0  0  0  1  0  0  0  0  0  0  0  0
   -3.9147   -2.1629   -0.6161 C   0  0  0  1  0  0  0  0  0  0  0  0
   -6.0371   -1.8894    0.4579 C   0  0  0  1  0  0  0  0  0  0  0  0
   -5.7176   -0.5777    0.7552 C   0  0  0  1  0  0  0  0  0  0  0  0
   -5.1366   -2.6813   -0.2299 C   0  0  0  1  0  0  0  0  0  0  0  0
    0.0805    5.5535   -1.0401 C   0  0  0  1  0  0  0  0  0  0  0  0
    5.9450   -0.6268    5.1020 C   0  0  0  1  0  0  0  0  0  0  0  0
   -7.3690   -2.4546    0.8793 C   0  0  0  1  0  0  0  0  0  0  0  0
   -1.2873    6.0085   -1.3383 C   0  0  0  1  0  0  0  0  0  0  0  0
    6.6756   -0.7598    6.0113 C   0  0  0  1  0  0  0  0  0  0  0  0
   -2.3782    6.3713   -1.5761 C   0  0  0  1  0  0  0  0  0  0  0  0
    2.7605   -0.5562   -0.1681 H   0  0  0  1  0  0  0  0  0  0  0  0
    0.9949   -1.5679    1.1158 H   0  0  0  1  0  0  0  0  0  0  0  0
    0.7173   -0.0691    2.0406 H   0  0  0  1  0  0  0  0  0  0  0  0
    0.3164   -0.3618   -0.9785 H   0  0  0  1  0  0  0  0  0  0  0  0
    3.2293    2.0545    0.2839 H   0  0  0  1  0  0  0  0  0  0  0  0
    4.6537   -1.4490    0.7826 H   0  0  0  1  0  0  0  0  0  0  0  0
    2.1930    1.1217    3.1358 H   0  0  0  1  0  0  0  0  0  0  0  0
   -2.3617    0.7819   -0.9186 H   0  0  0  1  0  0  0  0  0  0  0  0
   -1.9281   -0.7832   -1.6472 H   0  0  0  1  0  0  0  0  0  0  0  0
    6.1905   -1.7345    2.6818 H   0  0  0  1  0  0  0  0  0  0  0  0
    3.7179    0.8502    5.0467 H   0  0  0  1  0  0  0  0  0  0  0  0
   -4.2460    0.9653    0.6013 H   0  0  0  1  0  0  0  0  0  0  0  0
   -3.2115   -2.7814   -1.1540 H   0  0  0  1  0  0  0  0  0  0  0  0
   -0.7866    3.6520   -0.6652 H   0  0  0  1  0  0  0  0  0  0  0  0
   -6.4224    0.0420    1.2895 H   0  0  0  1  0  0  0  0  0  0  0  0
   -5.3881   -3.7047   -0.4661 H   0  0  0  1  0  0  0  0  0  0  0  0
    0.4833    6.1332   -0.2096 H   0  0  0  1  0  0  0  0  0  0  0  0
    0.7096    5.6929   -1.9193 H   0  0  0  1  0  0  0  0  0  0  0  0
   -7.7014   -1.9596    1.7918 H   0  0  0  1  0  0  0  0  0  0  0  0
   -7.2682   -3.5244    1.0623 H   0  0  0  1  0  0  0  0  0  0  0  0
   -9.2108   -2.5760    0.0461 H   0  0  0  1  0  0  0  0  0  0  0  0
    7.3290   -0.8788    6.8245 H   0  0  0  1  0  0  0  0  0  0  0  0
   -3.3538    6.6959   -1.7888 H   0  0  0  1  0  0  0  0  0  0  0  0
  1  8  1  0  0  0  0
  1 11  1  0  0  0  0
  2  8  1  0  0  0  0
  2 14  1  0  0  0  0
  3 15  2  0  0  0  0
  4 27  1  0  0  0  0
  4 51  1  0  0  0  0
  5 15  1  0  0  0  0
  5 25  1  0  0  0  0
  5 44  1  0  0  0  0
  6  7  1  0  0  0  0
  6  9  1  0  0  0  0
  6 10  1  0  0  0  0
  6 31  1  0  0  0  0
  7  8  1  0  0  0  0
  7 32  1  0  0  0  0
  7 33  1  0  0  0  0
  8 34  1  0  0  0  0
  9 12  4  0  0  0  0
  9 13  4  0  0  0  0
 10 11  2  0  0  0  0
 10 35  1  0  0  0  0
 11 15  1  0  0  0  0
 12 17  4  0  0  0  0
 12 36  1  0  0  0  0
 13 18  4  0  0  0  0
 13 37  1  0  0  0  0
 14 16  1  0  0  0  0
 14 38  1  0  0  0  0
 14 39  1  0  0  0  0
 16 20  4  0  0  0  0
 16 21  4  0  0  0  0
 17 19  4  0  0  0  0
 17 40  1  0  0  0  0
 18 19  4  0  0  0  0
 18 41  1  0  0  0  0
 19 26  1  0  0  0  0
 20 23  4  0  0  0  0
 20 42  1  0  0  0  0
 21 24  4  0  0  0  0
 21 43  1  0  0  0  0
 22 23  4  0  0  0  0
 22 24  4  0  0  0  0
 22 27  1  0  0  0  0
 23 45  1  0  0  0  0
 24 46  1  0  0  0  0
 25 28  1  0  0  0  0
 25 47  1  0  0  0  0
 25 48  1  0  0  0  0
 26 29  3  0  0  0  0
 27 49  1  0  0  0  0
 27 50  1  0  0  0  0
 28 30  3  0  0  0  0
 29 52  1  0  0  0  0
 30 53  1  0  0  0  0
M  END
> <Activity>
0.01

> <Mapped(file=2032.csv.activities,property=Cached(PUBCHEM_COMPOUND_CID))>
100

> <MatchIndices>
204 

> <PUBCHEM_ATOM_DEF_STEREO_COUNT>
2

> <PUBCHEM_ATOM_UDEF_STEREO_COUNT>
0

> <PUBCHEM_BONDANNOTATIONS>
12  17  8
13  18  8
16  20  8
16  21  8
17  19  8
18  19  8
8  2  5
20  23  8
21  24  8
22  23  8
22  24  8
6  9  5
9  12  8
9  13  8

> <PUBCHEM_BOND_DEF_STEREO_COUNT>
0

> <PUBCHEM_BOND_UDEF_STEREO_COUNT>
0

> <PUBCHEM_CACTVS_COMPLEXITY>
695

> <PUBCHEM_CACTVS_HBOND_ACCEPTOR>
4

> <PUBCHEM_CACTVS_HBOND_DONOR>
2

> <PUBCHEM_CACTVS_ROTATABLE_BOND>
8

> <PUBCHEM_CACTVS_SUBSKEYS>
AAADceB6OAAAAAAAAAAAAAAAAAAAAAAAAAAwYIAAAAAAAAABQAAAHgAQCAAADQTxmAcwCILABgDIGiFSEAqCCAAgIAAIiIBICMgaNiKAMRyjcAAkxgGcuYeAwPAOwAAAAAAAAACAAAAAAAAAAAAAAAAAAA==

> <PUBCHEM_CACTVS_TAUTO_COUNT>
2

> <PUBCHEM_CACTVS_TPSA>
67.8

> <PUBCHEM_COMPONENT_COUNT>
1

> <PUBCHEM_COMPOUND_CANONICALIZED>
1

> <PUBCHEM_COMPOUND_CID>
24746733

> <PUBCHEM_COORDINATE_TYPE>
1
5
255

> <PUBCHEM_EXACT_MASS>
401.162708

> <PUBCHEM_HEAVY_ATOM_COUNT>
30

> <PUBCHEM_ISOTOPIC_ATOM_COUNT>
0

> <PUBCHEM_IUPAC_CAS_NAME>
(2S,4S)-4-(4-ethynylphenyl)-2-[[4-(hydroxymethyl)phenyl]methoxy]-N-prop-2-ynyl-3,4-dihydro-2H-pyran-6-carboxamide

> <PUBCHEM_IUPAC_INCHI>
InChI=1S/C25H23NO4/c1-3-13-26-25(28)23-14-22(21-11-9-18(4-2)10-12-21)15-24(30-23)29-17-20-7-5-19(16-27)6-8-20/h1-2,5-12,14,22,24,27H,13,15-17H2,(H,26,28)/t22-,24+/m1/s1

> <PUBCHEM_IUPAC_INCHIKEY>
PFNFLIQZTKQYNI-VWNXMTODSA-N

> <PUBCHEM_IUPAC_NAME>
(2S,4S)-4-(4-ethynylphenyl)-2-[[4-(hydroxymethyl)phenyl]methoxy]-N-prop-2-ynyl-3,4-dihydro-2H-pyran-6-carboxamide

> <PUBCHEM_IUPAC_OPENEYE_NAME>
(2S,4S)-4-(4-ethynylphenyl)-2-[[4-(hydroxymethyl)phenyl]methoxy]-N-prop-2-ynyl-3,4-dihydro-2H-pyran-6-carboxamide

> <PUBCHEM_IUPAC_SYSTEMATIC_NAME>
(2S,4S)-4-(4-ethynylphenyl)-2-[[4-(hydroxymethyl)phenyl]methoxy]-N-prop-2-ynyl-3,4-dihydro-2H-pyran-6-carboxamide

> <PUBCHEM_IUPAC_TRADITIONAL_NAME>
(2S,4S)-4-(4-ethynylphenyl)-2-(4-methylolbenzyl)oxy-N-propargyl-3,4-dihydro-2H-pyran-6-carboxamide

> <PUBCHEM_MOLECULAR_FORMULA>
C25H23NO4

> <PUBCHEM_MOLECULAR_WEIGHT>
401.45442

> <PUBCHEM_MONOISOTOPIC_WEIGHT>
401.162708

> <PUBCHEM_OPENEYE_CAN_SMILES>
C#CCNC(=O)C1=CC(CC(O1)OCC2=CC=C(C=C2)CO)C3=CC=C(C=C3)C#C

> <PUBCHEM_OPENEYE_ISO_SMILES>
C#CCNC(=O)C1=C[C@H](C[C@H](O1)OCC2=CC=C(C=C2)CO)C3=CC=C(C=C3)C#C

> <PUBCHEM_TOTAL_CHARGE>
0

> <PUBCHEM_XLOGP3_AA>
3.1

$$$$
Largest isolated from Written by BCL::WriteToMDL,24746735
JMcorina  04211410293D 1   1.00000     0.00000 
CORINA 3.49 0026  01.06.2011
 52 54  0  0  0  0  0  0  0  0999 V2000
   -0.0173    1.4261    0.0099 O   0  0  0  1  0  0  0  0  0  0  0  0
   -1.3022   -0.5050    0.3020 O   0  0  0  1  0  0  0  0  0  0  0  0
    2.2557    4.1029   -0.3787 O   0  0  0  1  0  0  0  0  0  0  0  0
   -8.3283   -2.2369   -0.1572 O   0  0  0  1  0  0  0  0  0  0  0  0
    0.0550    4.1342   -0.6780 N   0  0  0  1  0  0  0  0  0  0  0  0
    3.3447   -0.1537    1.8661 C   0  0  0  1  0  0  0  0  0  0  0  0
    2.3925    0.0197    0.6811 C   0  0  0  1  0  0  0  0  0  0  0  0
    3.4197   -1.6334    2.2478 C   0  0  0  1  0  0  0  0  0  0  0  0
    4.7383    0.3441    1.4776 C   0  0  0  1  0  0  0  0  0  0  0  0
    4.3718   -1.8068    3.4328 C   0  0  0  1  0  0  0  0  0  0  0  0
    5.6904    0.1707    2.6627 C   0  0  0  1  0  0  0  0  0  0  0  0
    5.7654   -1.3090    3.0444 C   0  0  0  1  0  0  0  0  0  0  0  0
    0.9967   -0.4788    1.0700 C   0  0  0  1  0  0  0  0  0  0  0  0
    2.3183    1.4749    0.3059 C   0  0  0  1  0  0  0  0  0  0  0  0
    0.0021   -0.0041    0.0020 C   0  0  0  1  0  0  0  0  0  0  0  0
    1.1751    2.0696    0.0020 C   0  0  0  1  0  0  0  0  0  0  0  0
    1.2008    3.4985   -0.3626 C   0  0  0  1  0  0  0  0  0  0  0  0
   -2.2610   -0.2878   -0.7351 C   0  0  0  1  0  0  0  0  0  0  0  0
   -3.5931   -0.8529   -0.3141 C   0  0  0  1  0  0  0  0  0  0  0  0
   -4.4957   -0.0594    0.3690 C   0  0  0  1  0  0  0  0  0  0  0  0
   -3.9147   -2.1629   -0.6161 C   0  0  0  1  0  0  0  0  0  0  0  0
   -5.7176   -0.5777    0.7552 C   0  0  0  1  0  0  0  0  0  0  0  0
   -5.1366   -2.6813   -0.2299 C   0  0  0  1  0  0  0  0  0  0  0  0
   -6.0371   -1.8894    0.4579 C   0  0  0  1  0  0  0  0  0  0  0  0
   -7.3690   -2.4546    0.8793 C   0  0  0  1  0  0  0  0  0  0  0  0
    2.9767    0.4223    2.7151 H   0  0  0  1  0  0  0  0  0  0  0  0
    2.7605   -0.5562   -0.1681 H   0  0  0  1  0  0  0  0  0  0  0  0
    5.1063   -0.2319    0.6286 H   0  0  0  1  0  0  0  0  0  0  0  0
    4.6848    1.3983    1.2057 H   0  0  0  1  0  0  0  0  0  0  0  0
    2.4268   -1.9880    2.5245 H   0  0  0  1  0  0  0  0  0  0  0  0
    3.7877   -2.2094    1.3987 H   0  0  0  1  0  0  0  0  0  0  0  0
    6.6833    0.5253    2.3859 H   0  0  0  1  0  0  0  0  0  0  0  0
    5.3224    0.7468    3.5117 H   0  0  0  1  0  0  0  0  0  0  0  0
    4.0038   -1.2308    4.2818 H   0  0  0  1  0  0  0  0  0  0  0  0
    4.4253   -2.8610    3.7047 H   0  0  0  1  0  0  0  0  0  0  0  0
    6.4438   -1.4325    3.8886 H   0  0  0  1  0  0  0  0  0  0  0  0
    6.1334   -1.8850    2.1953 H   0  0  0  1  0  0  0  0  0  0  0  0
    0.9949   -1.5679    1.1158 H   0  0  0  1  0  0  0  0  0  0  0  0
    0.7173   -0.0691    2.0406 H   0  0  0  1  0  0  0  0  0  0  0  0
    3.2293    2.0545    0.2839 H   0  0  0  1  0  0  0  0  0  0  0  0
    0.3164   -0.3618   -0.9785 H   0  0  0  1  0  0  0  0  0  0  0  0
   -2.3617    0.7819   -0.9186 H   0  0  0  1  0  0  0  0  0  0  0  0
   -1.9281   -0.7832   -1.6472 H   0  0  0  1  0  0  0  0  0  0  0  0
    0.0719    5.0739   -0.9178 H   0  0  0  1  0  0  0  0  0  0  0  0
   -0.7866    3.6520   -0.6652 H   0  0  0  1  0  0  0  0  0  0  0  0
   -4.2460    0.9653    0.6013 H   0  0  0  1  0  0  0  0  0  0  0  0
   -3.2115   -2.7814   -1.1540 H   0  0  0  1  0  0  0  0  0  0  0  0
   -6.4224    0.0420    1.2895 H   0  0  0  1  0  0  0  0  0  0  0  0
   -5.3880   -3.7047   -0.4661 H   0  0  0  1  0  0  0  0  0  0  0  0
   -7.7014   -1.9596    1.7918 H   0  0  0  1  0  0  0  0  0  0  0  0
   -7.2682   -3.5244    1.0623 H   0  0  0  1  0  0  0  0  0  0  0  0
   -9.2108   -2.5760    0.0461 H   0  0  0  1  0  0  0  0  0  0  0  0
  1 15  1  0  0  0  0
  1 16  1  0  0  0  0
  2 15  1  0  0  0  0
  2 18  1  0  0  0  0
  3 17  2  0  0  0  0
  4 25  1  0  0  0  0
  4 52  1  0  0  0  0
  5 17  1  0  0  0  0
  5 44  1  0  0  0  0
  5 45  1  0  0  0  0
  6  7  1  0  0  0  0
  6  8  1  0  0  0  0
  6  9  1  0  0  0  0
  6 26  1  0  0  0  0
  7 13  1  0  0  0  0
  7 14  1  0  0  0  0
  7 27  1  0  0  0  0
  8 10  1  0  0  0  0
  8 30  1  0  0  0  0
  8 31  1  0  0  0  0
  9 11  1  0  0  0  0
  9 28  1  0  0  0  0
  9 29  1  0  0  0  0
 10 12  1  0  0  0  0
 10 34  1  0  0  0  0
 10 35  1  0  0  0  0
 11 12  1  0  0  0  0
 11 32  1  0  0  0  0
 11 33  1  0  0  0  0
 12 36  1  0  0  0  0
 12 37  1  0  0  0  0
 13 15  1  0  0  0  0
 13 38  1  0  0  0  0
 13 39  1  0  0  0  0
 14 16  2  0  0  0  0
 14 40  1  0  0  0  0
 15 41  1  0  0  0  0
 16 17  1  0  0  0  0
 18 19  1  0  0  0  0
 18 42  1  0  0  0  0
 18 43  1  0  0  0  0
 19 20  4  0  0  0  0
 19 21  4  0  0  0  0
 20 22  4  0  0  0  0
 20 46  1  0  0  0  0
 21 23  4  0  0  0  0
 21 47  1  0  0  0  0
 22 24  4  0  0  0  0
 22 48  1  0  0  0  0
 23 24  4  0  0  0  0
 23 49  1  0  0  0  0
 24 25  1  0  0  0  0
 25 50  1  0  0  0  0
 25 51  1  0  0  0  0
M  END
> <Activity>
0.01

> <Mapped(file=2032.csv.activities,property=Cached(PUBCHEM_COMPOUND_CID))>
100

> <MatchIndices>
132 

> <PUBCHEM_ATOM_DEF_STEREO_COUNT>
2

> <PUBCHEM_ATOM_UDEF_STEREO_COUNT>
0

> <PUBCHEM_BONDANNOTATIONS>
19  20  8
19  21  8
15  2  5
20  22  8
21  23  8
22  24  8
23  24  8
7  27  6

> <PUBCHEM_BOND_DEF_STEREO_COUNT>
0

> <PUBCHEM_BOND_UDEF_STEREO_COUNT>
0

> <PUBCHEM_CACTVS_COMPLEXITY>
464

> <PUBCHEM_CACTVS_HBOND_ACCEPTOR>
4

> <PUBCHEM_CACTVS_HBOND_DONOR>
2

> <PUBCHEM_CACTVS_ROTATABLE_BOND>
6

> <PUBCHEM_CACTVS_SUBSKEYS>
AAADceB6OAAAAAAAAAAAAAAAAAAAAAAAAAAwYIAAAAAAAAABAAAAHgAQCAAADQSxmAMwCIBABgCIAiFSEAKCCAAgIAAIiABACMgaNiKAMRyjcAAkwAEMuYeAwPAOwAAAAAAAAACAAAAAAAAAAAAAAAAAAA==

> <PUBCHEM_CACTVS_TAUTO_COUNT>
2

> <PUBCHEM_CACTVS_TPSA>
81.8

> <PUBCHEM_COMPONENT_COUNT>
1

> <PUBCHEM_COMPOUND_CANONICALIZED>
1

> <PUBCHEM_COMPOUND_CID>
24746735

> <PUBCHEM_COORDINATE_TYPE>
1
5
255

> <PUBCHEM_EXACT_MASS>
345.194008

> <PUBCHEM_HEAVY_ATOM_COUNT>
25

> <PUBCHEM_ISOTOPIC_ATOM_COUNT>
0

> <PUBCHEM_IUPAC_CAS_NAME>
(2S,4R)-4-cyclohexyl-2-[[4-(hydroxymethyl)phenyl]methoxy]-3,4-dihydro-2H-pyran-6-carboxamide

> <PUBCHEM_IUPAC_INCHI>
InChI=1S/C20H27NO4/c21-20(23)18-10-17(16-4-2-1-3-5-16)11-19(25-18)24-13-15-8-6-14(12-22)7-9-15/h6-10,16-17,19,22H,1-5,11-13H2,(H2,21,23)/t17-,19+/m1/s1

> <PUBCHEM_IUPAC_INCHIKEY>
QRBJYWAFDJHZPG-MJGOQNOKSA-N

> <PUBCHEM_IUPAC_NAME>
(2S,4R)-4-cyclohexyl-2-[[4-(hydroxymethyl)phenyl]methoxy]-3,4-dihydro-2H-pyran-6-carboxamide

> <PUBCHEM_IUPAC_OPENEYE_NAME>
(2S,4R)-4-cyclohexyl-2-[[4-(hydroxymethyl)phenyl]methoxy]-3,4-dihydro-2H-pyran-6-carboxamide

> <PUBCHEM_IUPAC_SYSTEMATIC_NAME>
(2S,4R)-4-cyclohexyl-2-[[4-(hydroxymethyl)phenyl]methoxy]-3,4-dihydro-2H-pyran-6-carboxamide

> <PUBCHEM_IUPAC_TRADITIONAL_NAME>
(2S,4R)-4-cyclohexyl-2-(4-methylolbenzyl)oxy-3,4-dihydro-2H-pyran-6-carboxamide

> <PUBCHEM_MOLECULAR_FORMULA>
C20H27NO4

> <PUBCHEM_MOLECULAR_WEIGHT>
345.43268

> <PUBCHEM_MONOISOTOPIC_WEIGHT>
345.194008

> <PUBCHEM_OPENEYE_CAN_SMILES>
C1CCC(CC1)C2CC(OC(=C2)C(=O)N)OCC3=CC=C(C=C3)CO

> <PUBCHEM_OPENEYE_ISO_SMILES>
C1CCC(CC1)[C@H]2C[C@H](OC(=C2)C(=O)N)OCC3=CC=C(C=C3)CO

> <PUBCHEM_TOTAL_CHARGE>
0

> <PUBCHEM_XLOGP3_AA>
3.4

$$$$
Largest isolated from Written by BCL::WriteToMDL,731799
JMcorina  04211410293D 1   1.00000     0.00000 
CORINA 3.49 0026  01.06.2011
 44 46  0  0  0  0  0  0  0  0999 V2000
   -0.0276    1.4213    0.2182 O   0  0  0  1  0  0  0  0  0  0  0  0
   -2.3408    0.2496   -0.0700 O   0  0  0  1  0  0  0  0  0  0  0  0
    0.0703    4.1669    0.4218 O   0  0  0  1  0  0  0  0  0  0  0  0
   -1.6404   -1.8539    0.0125 N   0  0  0  1  0  0  0  0  0  0  0  0
   -0.8675   -3.8995   -1.0401 C   0  0  0  1  0  0  0  0  0  0  0  0
   -0.5207   -2.8046   -0.0228 C   0  0  0  1  0  0  0  0  0  0  0  0
   -2.1057   -4.6519   -0.5533 C   0  0  0  1  0  0  0  0  0  0  0  0
   -3.2112   -3.6862   -0.2167 C   0  0  0  1  0  0  0  0  0  0  0  0
   -2.9502   -2.3516    0.0517 C   0  0  0  1  0  0  0  0  0  0  0  0
   -4.5155   -4.1491   -0.1750 C   0  0  0  1  0  0  0  0  0  0  0  0
   -1.4117   -0.5257    0.0127 C   0  0  0  1  0  0  0  0  0  0  0  0
   -3.9935   -1.4878    0.3637 C   0  0  0  1  0  0  0  0  0  0  0  0
   -5.5512   -3.2885    0.1341 C   0  0  0  1  0  0  0  0  0  0  0  0
   -5.2912   -1.9577    0.4043 C   0  0  0  1  0  0  0  0  0  0  0  0
   -0.0017   -0.0038    0.1158 C   0  0  0  1  0  0  0  0  0  0  0  0
    1.1715    2.0548    0.3196 C   0  0  0  1  0  0  0  0  0  0  0  0
    1.2209    3.4420    0.4227 C   0  0  0  1  0  0  0  0  0  0  0  0
    2.3462    1.3206    0.3263 C   0  0  0  1  0  0  0  0  0  0  0  0
    2.4448    4.0827    0.5258 C   0  0  0  1  0  0  0  0  0  0  0  0
    3.5646    1.9663    0.4295 C   0  0  0  1  0  0  0  0  0  0  0  0
    3.6139    3.3442    0.5261 C   0  0  0  1  0  0  0  0  0  0  0  0
    0.1974    5.5860    0.5308 C   0  0  0  1  0  0  0  0  0  0  0  0
   -1.1924    6.2255    0.5125 C   0  0  0  1  0  0  0  0  0  0  0  0
   -1.0737   -3.4453   -2.0093 H   0  0  0  1  0  0  0  0  0  0  0  0
   -0.0310   -4.5926   -1.1301 H   0  0  0  1  0  0  0  0  0  0  0  0
    0.3904   -2.2909   -0.3295 H   0  0  0  1  0  0  0  0  0  0  0  0
   -0.3814   -3.2477    0.9633 H   0  0  0  1  0  0  0  0  0  0  0  0
   -2.4460   -5.3293   -1.3365 H   0  0  0  1  0  0  0  0  0  0  0  0
   -1.8496   -5.2295    0.3349 H   0  0  0  1  0  0  0  0  0  0  0  0
   -4.7242   -5.1878   -0.3850 H   0  0  0  1  0  0  0  0  0  0  0  0
   -3.7889   -0.4486    0.5748 H   0  0  0  1  0  0  0  0  0  0  0  0
   -6.5662   -3.6561    0.1648 H   0  0  0  1  0  0  0  0  0  0  0  0
   -6.1019   -1.2868    0.6471 H   0  0  0  1  0  0  0  0  0  0  0  0
    0.5590   -0.2942   -0.7726 H   0  0  0  1  0  0  0  0  0  0  0  0
    0.4770   -0.4230    1.0008 H   0  0  0  1  0  0  0  0  0  0  0  0
    2.3103    0.2438    0.2513 H   0  0  0  1  0  0  0  0  0  0  0  0
    2.4859    5.1589    0.6055 H   0  0  0  1  0  0  0  0  0  0  0  0
    4.4797    1.3927    0.4350 H   0  0  0  1  0  0  0  0  0  0  0  0
    4.5675    3.8449    0.6065 H   0  0  0  1  0  0  0  0  0  0  0  0
    0.6997    5.8351    1.4655 H   0  0  0  1  0  0  0  0  0  0  0  0
    0.7823    5.9639   -0.3078 H   0  0  0  1  0  0  0  0  0  0  0  0
   -1.0955    7.3080    0.5956 H   0  0  0  1  0  0  0  0  0  0  0  0
   -1.6947    5.9764   -0.4223 H   0  0  0  1  0  0  0  0  0  0  0  0
   -1.7773    5.8476    1.3511 H   0  0  0  1  0  0  0  0  0  0  0  0
  1 15  1  0  0  0  0
  1 16  1  0  0  0  0
  2 11  2  0  0  0  0
  3 17  1  0  0  0  0
  3 22  1  0  0  0  0
  4  6  1  0  0  0  0
  4  9  1  0  0  0  0
  4 11  1  0  0  0  0
  5  6  1  0  0  0  0
  5  7  1  0  0  0  0
  5 24  1  0  0  0  0
  5 25  1  0  0  0  0
  6 26  1  0  0  0  0
  6 27  1  0  0  0  0
  7  8  1  0  0  0  0
  7 28  1  0  0  0  0
  7 29  1  0  0  0  0
  8  9  4  0  0  0  0
  8 10  4  0  0  0  0
  9 12  4  0  0  0  0
 10 13  4  0  0  0  0
 10 30  1  0  0  0  0
 11 15  1  0  0  0  0
 12 14  4  0  0  0  0
 12 31  1  0  0  0  0
 13 14  4  0  0  0  0
 13 32  1  0  0  0  0
 14 33  1  0  0  0  0
 15 34  1  0  0  0  0
 15 35  1  0  0  0  0
 16 17  4  0  0  0  0
 16 18  4  0  0  0  0
 17 19  4  0  0  0  0
 18 20  4  0  0  0  0
 18 36  1  0  0  0  0
 19 21  4  0  0  0  0
 19 37  1  0  0  0  0
 20 21  4  0  0  0  0
 20 38  1  0  0  0  0
 21 39  1  0  0  0  0
 22 23  1  0  0  0  0
 22 40  1  0  0  0  0
 22 41  1  0  0  0  0
 23 42  1  0  0  0  0
 23 43  1  0  0  0  0
 23 44  1  0  0  0  0
M  END
> <Activity>
0.01

> <Mapped(file=2032.csv.activities,property=Cached(PUBCHEM_COMPOUND_CID))>
100

> <MatchIndices>
36 

> <PUBCHEM_ATOM_DEF_STEREO_COUNT>
0

> <PUBCHEM_ATOM_UDEF_STEREO_COUNT>
0

> <PUBCHEM_BONDANNOTATIONS>
10  13  8
12  14  8
13  14  8
16  17  8
16  18  8
17  19  8
18  20  8
19  21  8
20  21  8
8  10  8
8  9  8
9  12  8

> <PUBCHEM_BOND_DEF_STEREO_COUNT>
0

> <PUBCHEM_BOND_UDEF_STEREO_COUNT>
0

> <PUBCHEM_CACTVS_COMPLEXITY>
387

> <PUBCHEM_CACTVS_HBOND_ACCEPTOR>
3

> <PUBCHEM_CACTVS_HBOND_DONOR>
0

> <PUBCHEM_CACTVS_ROTATABLE_BOND>
5

> <PUBCHEM_CACTVS_SUBSKEYS>
AAADceB6MAAAAAAAAAAAAAAAAAAAAAAAAAA8YIAAAAAAAACxQAAAHgAAAAAADAzhmAYyxoMABACIAiVSUAKCCAAhIgAIiABO7IgPJiLEsZ+HOCrkxhHa6AeQwIAOAAAAAAACQAAAAAAAAASAAAAAAAAAAA==

> <PUBCHEM_CACTVS_TAUTO_COUNT>
1

> <PUBCHEM_CACTVS_TPSA>
38.8

> <PUBCHEM_COMPONENT_COUNT>
1

> <PUBCHEM_COMPOUND_CANONICALIZED>
1

> <PUBCHEM_COMPOUND_CID>
731799

> <PUBCHEM_COORDINATE_TYPE>
1
5
255

> <PUBCHEM_EXACT_MASS>
311.152144

> <PUBCHEM_HEAVY_ATOM_COUNT>
23

> <PUBCHEM_ISOTOPIC_ATOM_COUNT>
0

> <PUBCHEM_IUPAC_CAS_NAME>
1-(3,4-dihydro-2H-quinolin-1-yl)-2-(2-ethoxyphenoxy)ethanone

> <PUBCHEM_IUPAC_INCHI>
InChI=1S/C19H21NO3/c1-2-22-17-11-5-6-12-18(17)23-14-19(21)20-13-7-9-15-8-3-4-10-16(15)20/h3-6,8,10-12H,2,7,9,13-14H2,1H3

> <PUBCHEM_IUPAC_INCHIKEY>
KAAAYULNQBOWBP-UHFFFAOYSA-N

> <PUBCHEM_IUPAC_NAME>
1-(3,4-dihydro-2H-quinolin-1-yl)-2-(2-ethoxyphenoxy)ethanone

> <PUBCHEM_IUPAC_OPENEYE_NAME>
1-(3,4-dihydro-2H-quinolin-1-yl)-2-(2-ethoxyphenoxy)ethanone

> <PUBCHEM_IUPAC_SYSTEMATIC_NAME>
1-(3,4-dihydro-2H-quinolin-1-yl)-2-(2-ethoxyphenoxy)ethanone

> <PUBCHEM_IUPAC_TRADITIONAL_NAME>
1-(3,4-dihydro-2H-quinolin-1-yl)-2-(2-ethoxyphenoxy)ethanone

> <PUBCHEM_MOLECULAR_FORMULA>
C19H21NO3

> <PUBCHEM_MOLECULAR_WEIGHT>
311.37494

> <PUBCHEM_MONOISOTOPIC_WEIGHT>
311.152144

> <PUBCHEM_OPENEYE_CAN_SMILES>
CCOC1=CC=CC=C1OCC(=O)N2CCCC3=CC=CC=C32

> <PUBCHEM_OPENEYE_ISO_SMILES>
CCOC1=CC=CC=C1OCC(=O)N2CCCC3=CC=CC=C32

> <PUBCHEM_TOTAL_CHARGE>
0

> <PUBCHEM_XLOGP3_AA>
3.7

$$$$
Largest isolated from Written by BCL::WriteToMDL,1096489
JMcorina  04211410293D 1   1.00000     0.00000 
CORINA 3.49 0026  01.06.2011
 37 39  0  0  0  0  0  0  0  0999 V2000
   -4.5098   -3.3183    0.1249 F   0  0  0  1  0  0  0  0  0  0  0  0
    4.0308    8.9223    0.3590 F   0  0  0  1  0  0  0  0  0  0  0  0
    0.0003    1.3922    0.1187 N   0  0  0  1  0  0  0  0  0  0  0  0
    1.7540    3.0901    0.1075 N   0  0  0  1  0  0  0  0  0  0  0  0
    2.0557    0.7183   -0.0893 N   0  0  0  1  0  0  0  0  0  0  0  0
   -0.0097    0.0118    0.0188 C   0  0  0  1  0  0  0  0  0  0  0  0
    1.3012    1.7846    0.0468 C   0  0  0  1  0  0  0  0  0  0  0  0
    3.1886    3.3727    0.0172 C   0  0  0  1  0  0  0  0  0  0  0  0
   -1.1978   -0.8672    0.0464 C   0  0  0  1  0  0  0  0  0  0  0  0
    1.2854   -0.3776   -0.1097 C   0  0  0  1  0  0  0  0  0  0  0  0
    3.4143    4.8599    0.1088 C   0  0  0  1  0  0  0  0  0  0  0  0
   -1.1672    2.2647    0.2672 C   0  0  0  1  0  0  0  0  0  0  0  0
   -1.1201   -2.1662   -0.4587 C   0  0  0  1  0  0  0  0  0  0  0  0
   -2.4001   -0.4033    0.5831 C   0  0  0  1  0  0  0  0  0  0  0  0
    3.6099    5.4542    1.3416 C   0  0  0  1  0  0  0  0  0  0  0  0
    3.4313    5.6280   -1.0405 C   0  0  0  1  0  0  0  0  0  0  0  0
   -2.2317   -2.9823   -0.4299 C   0  0  0  1  0  0  0  0  0  0  0  0
   -3.5055   -1.2280    0.6068 C   0  0  0  1  0  0  0  0  0  0  0  0
   -3.4240   -2.5148    0.0992 C   0  0  0  1  0  0  0  0  0  0  0  0
    3.8169    6.8179    1.4268 C   0  0  0  1  0  0  0  0  0  0  0  0
    3.6386    6.9918   -0.9578 C   0  0  0  1  0  0  0  0  0  0  0  0
    3.8289    7.5890    0.2768 C   0  0  0  1  0  0  0  0  0  0  0  0
    3.7092    2.8752    0.8355 H   0  0  0  1  0  0  0  0  0  0  0  0
    3.5722    3.0050   -0.9345 H   0  0  0  1  0  0  0  0  0  0  0  0
    1.1216    3.8184    0.2099 H   0  0  0  1  0  0  0  0  0  0  0  0
    1.6338   -1.3949   -0.2106 H   0  0  0  1  0  0  0  0  0  0  0  0
   -1.4438    2.3255    1.3198 H   0  0  0  1  0  0  0  0  0  0  0  0
   -0.9257    3.2610   -0.1032 H   0  0  0  1  0  0  0  0  0  0  0  0
   -2.0008    1.8567   -0.3045 H   0  0  0  1  0  0  0  0  0  0  0  0
   -0.1913   -2.5315   -0.8716 H   0  0  0  1  0  0  0  0  0  0  0  0
   -2.4646    0.5993    0.9793 H   0  0  0  1  0  0  0  0  0  0  0  0
    3.6005    4.8526    2.2384 H   0  0  0  1  0  0  0  0  0  0  0  0
    3.2828    5.1620   -2.0034 H   0  0  0  1  0  0  0  0  0  0  0  0
   -2.1728   -3.9873   -0.8208 H   0  0  0  1  0  0  0  0  0  0  0  0
   -4.4361   -0.8701    1.0217 H   0  0  0  1  0  0  0  0  0  0  0  0
    3.9690    7.2821    2.3900 H   0  0  0  1  0  0  0  0  0  0  0  0
    3.6515    7.5917   -1.8558 H   0  0  0  1  0  0  0  0  0  0  0  0
  1 19  1  0  0  0  0
  2 22  1  0  0  0  0
  3  6  4  0  0  0  0
  3  7  4  0  0  0  0
  3 12  1  0  0  0  0
  4  7  1  0  0  0  0
  4  8  1  0  0  0  0
  4 25  1  0  0  0  0
  5  7  4  0  0  0  0
  5 10  4  0  0  0  0
  6  9  1  0  0  0  0
  6 10  4  0  0  0  0
  8 11  1  0  0  0  0
  8 23  1  0  0  0  0
  8 24  1  0  0  0  0
  9 13  4  0  0  0  0
  9 14  4  0  0  0  0
 10 26  1  0  0  0  0
 11 15  4  0  0  0  0
 11 16  4  0  0  0  0
 12 27  1  0  0  0  0
 12 28  1  0  0  0  0
 12 29  1  0  0  0  0
 13 17  4  0  0  0  0
 13 30  1  0  0  0  0
 14 18  4  0  0  0  0
 14 31  1  0  0  0  0
 15 20  4  0  0  0  0
 15 32  1  0  0  0  0
 16 21  4  0  0  0  0
 16 33  1  0  0  0  0
 17 19  4  0  0  0  0
 17 34  1  0  0  0  0
 18 19  4  0  0  0  0
 18 35  1  0  0  0  0
 20 22  4  0  0  0  0
 20 36  1  0  0  0  0
 21 22  4  0  0  0  0
 21 37  1  0  0  0  0
M  END
> <Activity>
0.01

> <Mapped(file=2032.csv.activities,property=Cached(PUBCHEM_COMPOUND_CID))>
100

> <MatchIndices>
34 

> <PUBCHEM_ATOM_DEF_STEREO_COUNT>
0

> <PUBCHEM_ATOM_UDEF_STEREO_COUNT>
0

> <PUBCHEM_BONDANNOTATIONS>
11  15  8
11  16  8
13  17  8
14  18  8
15  20  8
16  21  8
17  19  8
18  19  8
20  22  8
21  22  8
3  6  8
3  7  8
5  10  8
5  7  8
6  10  8
9  13  8
9  14  8

> <PUBCHEM_BOND_DEF_STEREO_COUNT>
0

> <PUBCHEM_BOND_UDEF_STEREO_COUNT>
0

> <PUBCHEM_CACTVS_COMPLEXITY>
339

> <PUBCHEM_CACTVS_HBOND_ACCEPTOR>
2

> <PUBCHEM_CACTVS_HBOND_DONOR>
1

> <PUBCHEM_CACTVS_ROTATABLE_BOND>
4

> <PUBCHEM_CACTVS_SUBSKEYS>
AAADccB7AYAAAAAAAAAAAAAAAAAAAWAAAAAwYAAAAAAAAAAB0AAAHQAQAAAADAjBHgw/kJfMEACgAzRnZACCgC0xEqAJ2KA4dJiIaKLAmRGUIAhogAJIyCcQgIAOAAAAAAAAAAAAAAAAAAAAAAAAAAAAAA==

> <PUBCHEM_CACTVS_TAUTO_COUNT>
2

> <PUBCHEM_CACTVS_TPSA>
29.8

> <PUBCHEM_COMPONENT_COUNT>
1

> <PUBCHEM_COMPOUND_CANONICALIZED>
1

> <PUBCHEM_COMPOUND_CID>
1096489

> <PUBCHEM_COORDINATE_TYPE>
1
5
255

> <PUBCHEM_EXACT_MASS>
299.123404

> <PUBCHEM_HEAVY_ATOM_COUNT>
22

> <PUBCHEM_ISOTOPIC_ATOM_COUNT>
0

> <PUBCHEM_IUPAC_CAS_NAME>
5-(4-fluorophenyl)-N-[(4-fluorophenyl)methyl]-1-methyl-2-imidazolamine

> <PUBCHEM_IUPAC_INCHI>
InChI=1S/C17H15F2N3/c1-22-16(13-4-8-15(19)9-5-13)11-21-17(22)20-10-12-2-6-14(18)7-3-12/h2-9,11H,10H2,1H3,(H,20,21)

> <PUBCHEM_IUPAC_INCHIKEY>
BPOLNIQRAQRPDW-UHFFFAOYSA-N

> <PUBCHEM_IUPAC_NAME>
5-(4-fluorophenyl)-N-[(4-fluorophenyl)methyl]-1-methylimidazol-2-amine

> <PUBCHEM_IUPAC_OPENEYE_NAME>
5-(4-fluorophenyl)-N-[(4-fluorophenyl)methyl]-1-methyl-imidazol-2-amine

> <PUBCHEM_IUPAC_SYSTEMATIC_NAME>
5-(4-fluorophenyl)-N-[(4-fluorophenyl)methyl]-1-methyl-imidazol-2-amine

> <PUBCHEM_IUPAC_TRADITIONAL_NAME>
(4-fluorobenzyl)-[5-(4-fluorophenyl)-1-methyl-imidazol-2-yl]amine

> <PUBCHEM_MOLECULAR_FORMULA>
C17H15F2N3

> <PUBCHEM_MOLECULAR_WEIGHT>
299.317906

> <PUBCHEM_MONOISOTOPIC_WEIGHT>
299.123404

> <PUBCHEM_OPENEYE_CAN_SMILES>
CN1C(=CN=C1NCC2=CC=C(C=C2)F)C3=CC=C(C=C3)F

> <PUBCHEM_OPENEYE_ISO_SMILES>
CN1C(=CN=C1NCC2=CC=C(C=C2)F)C3=CC=C(C=C3)F

> <PUBCHEM_TOTAL_CHARGE>
0

> <PUBCHEM_XLOGP3_AA>
3.7

$$$$
Largest isolated from Written by BCL::WriteToMDL,1320969
JMcorina  04211410293D 1   1.00000     0.00000 
CORINA 3.49 0026  01.06.2011
 38 40  0  0  0  0  0  0  0  0999 V2000
   -0.0218    1.7577    0.0117 S   0  0  0  1  0  0  0  0  0  0  0  0
    6.5947    1.7720   -0.4887 F   0  0  0  1  0  0  0  0  0  0  0  0
    6.3300    3.1961    1.2780 F   0  0  0  1  0  0  0  0  0  0  0  0
    6.1666    3.9853   -0.8597 F   0  0  0  1  0  0  0  0  0  0  0  0
    2.5212    0.9748    3.3110 O   0  5  0  1  0  0  0  0  0  0  0  0
    0.6496    0.9936    2.3376 O   0  0  0  1  0  0  0  0  0  0  0  0
   -1.0854   -0.8099   -0.1872 N   0  0  0  1  0  0  0  0  0  0  0  0
    1.0671   -0.7214   -0.4371 N   0  0  0  1  0  0  0  0  0  0  0  0
    1.8457    1.2236    2.3285 N   0  3  0  1  0  0  0  0  0  0  0  0
   -2.4766   -0.4071    0.0331 C   0  0  0  1  0  0  0  0  0  0  0  0
   -3.0869    0.0271   -1.2746 C   0  0  0  1  0  0  0  0  0  0  0  0
    0.0005    0.0104   -0.2142 C   0  0  0  1  0  0  0  0  0  0  0  0
    1.7086    2.0897    0.0020 C   0  0  0  1  0  0  0  0  0  0  0  0
   -0.6277   -2.0902   -0.4002 C   0  0  0  1  0  0  0  0  0  0  0  0
    2.4784    1.8055    1.1231 C   0  0  0  1  0  0  0  0  0  0  0  0
    4.4260    2.6115   -0.0131 C   0  0  0  1  0  0  0  0  0  0  0  0
   -3.7248   -0.8974   -2.0804 C   0  0  0  1  0  0  0  0  0  0  0  0
   -3.0138    1.3509   -1.6657 C   0  0  0  1  0  0  0  0  0  0  0  0
    3.8344    2.0670    1.1120 C   0  0  0  1  0  0  0  0  0  0  0  0
    2.3076    2.6310   -1.1292 C   0  0  0  1  0  0  0  0  0  0  0  0
    3.6638    2.8899   -1.1333 C   0  0  0  1  0  0  0  0  0  0  0  0
    0.7052   -2.0096   -0.5542 C   0  0  0  1  0  0  0  0  0  0  0  0
   -4.2846   -0.4992   -3.2799 C   0  0  0  1  0  0  0  0  0  0  0  0
   -3.5736    1.7492   -2.8652 C   0  0  0  1  0  0  0  0  0  0  0  0
    5.9059    2.8963   -0.0210 C   0  0  0  1  0  0  0  0  0  0  0  0
   -4.2069    0.8237   -3.6735 C   0  0  0  1  0  0  0  0  0  0  0  0
   -3.0395   -1.2497    0.4348 H   0  0  0  1  0  0  0  0  0  0  0  0
   -2.5073    0.4210    0.7411 H   0  0  0  1  0  0  0  0  0  0  0  0
   -1.2257   -2.9889   -0.4364 H   0  0  0  1  0  0  0  0  0  0  0  0
    4.4334    1.8464    1.9832 H   0  0  0  1  0  0  0  0  0  0  0  0
    1.7130    2.8486   -2.0041 H   0  0  0  1  0  0  0  0  0  0  0  0
   -3.7855   -1.9310   -1.7730 H   0  0  0  1  0  0  0  0  0  0  0  0
   -2.5196    2.0741   -1.0339 H   0  0  0  1  0  0  0  0  0  0  0  0
    4.1290    3.3153   -2.0101 H   0  0  0  1  0  0  0  0  0  0  0  0
    1.3714   -2.8391   -0.7402 H   0  0  0  1  0  0  0  0  0  0  0  0
   -4.7823   -1.2216   -3.9098 H   0  0  0  1  0  0  0  0  0  0  0  0
   -3.5168    2.7836   -3.1705 H   0  0  0  1  0  0  0  0  0  0  0  0
   -4.6440    1.1348   -4.6108 H   0  0  0  1  0  0  0  0  0  0  0  0
  1 12  1  0  0  0  0
  1 13  1  0  0  0  0
  2 25  1  0  0  0  0
  3 25  1  0  0  0  0
  4 25  1  0  0  0  0
  5  9  1  0  0  0  0
  6  9  2  0  0  0  0
  7 10  1  0  0  0  0
  7 12  4  0  0  0  0
  7 14  4  0  0  0  0
  8 12  4  0  0  0  0
  8 22  4  0  0  0  0
  9 15  1  0  0  0  0
 10 11  1  0  0  0  0
 10 27  1  0  0  0  0
 10 28  1  0  0  0  0
 11 17  4  0  0  0  0
 11 18  4  0  0  0  0
 13 15  4  0  0  0  0
 13 20  4  0  0  0  0
 14 22  4  0  0  0  0
 14 29  1  0  0  0  0
 15 19  4  0  0  0  0
 16 19  4  0  0  0  0
 16 21  4  0  0  0  0
 16 25  1  0  0  0  0
 17 23  4  0  0  0  0
 17 32  1  0  0  0  0
 18 24  4  0  0  0  0
 18 33  1  0  0  0  0
 19 30  1  0  0  0  0
 20 21  4  0  0  0  0
 20 31  1  0  0  0  0
 21 34  1  0  0  0  0
 22 35  1  0  0  0  0
 23 26  4  0  0  0  0
 23 36  1  0  0  0  0
 24 26  4  0  0  0  0
 24 37  1  0  0  0  0
 26 38  1  0  0  0  0
M  END
> <Activity>
0.01

> <Mapped(file=2032.csv.activities,property=Cached(PUBCHEM_COMPOUND_CID))>
100

> <MatchIndices>
200 

> <PUBCHEM_ATOM_DEF_STEREO_COUNT>
0

> <PUBCHEM_ATOM_UDEF_STEREO_COUNT>
0

> <PUBCHEM_BONDANNOTATIONS>
11  17  8
11  18  8
13  15  8
13  20  8
14  22  8
15  19  8
16  19  8
16  21  8
17  23  8
18  24  8
20  21  8
23  26  8
24  26  8
7  12  8
7  14  8
8  12  8
8  22  8

> <PUBCHEM_BOND_DEF_STEREO_COUNT>
0

> <PUBCHEM_BOND_UDEF_STEREO_COUNT>
0

> <PUBCHEM_CACTVS_COMPLEXITY>
483

> <PUBCHEM_CACTVS_HBOND_ACCEPTOR>
6

> <PUBCHEM_CACTVS_HBOND_DONOR>
0

> <PUBCHEM_CACTVS_ROTATABLE_BOND>
4

> <PUBCHEM_CACTVS_SUBSKEYS>
AAADccB7MYBAAAAAAAAAAAAAAAAAAWAAAAAwYAAAAAAAAAAB0AAAHQQEAAAADAjBWhQ90ZccUAihAjRnZwCC0C1xGrApyBwYdIqIaCKgmZGUIAhogAKIyCcQgAAOEAAAQAAAAQAgAACAAAACAAAAAAAAAA==

> <PUBCHEM_CACTVS_TAUTO_COUNT>
1

> <PUBCHEM_CACTVS_TPSA>
88.9

> <PUBCHEM_COMPONENT_COUNT>
1

> <PUBCHEM_COMPOUND_CANONICALIZED>
1

> <PUBCHEM_COMPOUND_CID>
1320969

> <PUBCHEM_COORDINATE_TYPE>
1
5
255

> <PUBCHEM_EXACT_MASS>
379.060232

> <PUBCHEM_HEAVY_ATOM_COUNT>
26

> <PUBCHEM_ISOTOPIC_ATOM_COUNT>
0

> <PUBCHEM_IUPAC_CAS_NAME>
2-[[2-nitro-4-(trifluoromethyl)phenyl]thio]-1-(phenylmethyl)imidazole

> <PUBCHEM_IUPAC_INCHI>
InChI=1S/C17H12F3N3O2S/c18-17(19,20)13-6-7-15(14(10-13)23(24)25)26-16-21-8-9-22(16)11-12-4-2-1-3-5-12/h1-10H,11H2

> <PUBCHEM_IUPAC_INCHIKEY>
XCLLUDWONYYKIY-UHFFFAOYSA-N

> <PUBCHEM_IUPAC_NAME>
1-benzyl-2-[2-nitro-4-(trifluoromethyl)phenyl]sulfanylimidazole

> <PUBCHEM_IUPAC_OPENEYE_NAME>
1-benzyl-2-[2-nitro-4-(trifluoromethyl)phenyl]sulfanyl-imidazole

> <PUBCHEM_IUPAC_SYSTEMATIC_NAME>
2-[2-nitro-4-(trifluoromethyl)phenyl]sulfanyl-1-(phenylmethyl)imidazole

> <PUBCHEM_IUPAC_TRADITIONAL_NAME>
1-benzyl-2-[[2-nitro-4-(trifluoromethyl)phenyl]thio]imidazole

> <PUBCHEM_MOLECULAR_FORMULA>
C17H12F3N3O2S

> <PUBCHEM_MOLECULAR_WEIGHT>
379.35629

> <PUBCHEM_MONOISOTOPIC_WEIGHT>
379.060232

> <PUBCHEM_OPENEYE_CAN_SMILES>
C1=CC=C(C=C1)CN2C=CN=C2SC3=C(C=C(C=C3)C(F)(F)F)[N+](=O)[O-]

> <PUBCHEM_OPENEYE_ISO_SMILES>
C1=CC=C(C=C1)CN2C=CN=C2SC3=C(C=C(C=C3)C(F)(F)F)[N+](=O)[O-]

> <PUBCHEM_TOTAL_CHARGE>
0

> <PUBCHEM_XLOGP3_AA>
4.7

$$$$
Largest isolated from Written by BCL::WriteToMDL,6471104
JMcorina  04211410293D 1   1.00000     0.00000 
CORINA 3.49 0026  01.06.2011
 46 48  0  0  0  0  0  0  0  0999 V2000
    5.4576   -5.3444   -6.8368 F   0  0  0  1  0  0  0  0  0  0  0  0
    3.1284   -2.7073   -1.8827 O   0  0  0  1  0  0  0  0  0  0  0  0
   -0.2345    0.8466    0.2749 N   0  0  0  1  0  0  0  0  0  0  0  0
    2.6951   -0.5891   -2.3912 N   0  0  0  1  0  0  0  0  0  0  0  0
    3.9294   -1.9651   -3.8168 N   0  0  0  1  0  0  0  0  0  0  0  0
    1.9529   -0.3956   -1.1430 C   0  0  0  1  0  0  0  0  0  0  0  0
    1.9723    1.0869   -0.7607 C   0  0  0  1  0  0  0  0  0  0  0  0
    0.5022   -0.8461   -1.3352 C   0  0  0  1  0  0  0  0  0  0  0  0
   -0.2827   -0.5852   -0.0476 C   0  0  0  1  0  0  0  0  0  0  0  0
    1.1449    1.2918    0.5103 C   0  0  0  1  0  0  0  0  0  0  0  0
   -1.0914    1.1558    1.4273 C   0  0  0  1  0  0  0  0  0  0  0  0
   -1.2120    2.6505    1.5770 C   0  0  0  1  0  0  0  0  0  0  0  0
    3.2467   -1.7871   -2.6685 C   0  0  0  1  0  0  0  0  0  0  0  0
   -2.2287    3.3299    0.9324 C   0  0  0  1  0  0  0  0  0  0  0  0
   -0.3092    3.3414    2.3634 C   0  0  0  1  0  0  0  0  0  0  0  0
   -2.3392    4.7010    1.0697 C   0  0  0  1  0  0  0  0  0  0  0  0
   -0.4197    4.7125    2.5008 C   0  0  0  1  0  0  0  0  0  0  0  0
   -1.4333    5.3926    1.8519 C   0  0  0  1  0  0  0  0  0  0  0  0
    4.5959   -3.1724   -4.0547 C   0  0  0  1  0  0  0  0  0  0  0  0
    4.6978   -3.6673   -5.3475 C   0  0  0  1  0  0  0  0  0  0  0  0
    5.1616   -3.8747   -2.9982 C   0  0  0  1  0  0  0  0  0  0  0  0
    5.3578   -4.8610   -5.5792 C   0  0  0  1  0  0  0  0  0  0  0  0
    5.8193   -5.0658   -3.2348 C   0  0  0  1  0  0  0  0  0  0  0  0
    5.9158   -5.5606   -4.5223 C   0  0  0  1  0  0  0  0  0  0  0  0
    2.4155   -0.9825   -0.3495 H   0  0  0  1  0  0  0  0  0  0  0  0
    2.9999    1.4029   -0.5808 H   0  0  0  1  0  0  0  0  0  0  0  0
    1.5461    1.6775   -1.5716 H   0  0  0  1  0  0  0  0  0  0  0  0
    0.0528   -0.2860   -2.1551 H   0  0  0  1  0  0  0  0  0  0  0  0
    0.4794   -1.9112   -1.5657 H   0  0  0  1  0  0  0  0  0  0  0  0
    1.1449    2.3486    0.7772 H   0  0  0  1  0  0  0  0  0  0  0  0
    1.5798    0.7118    1.3243 H   0  0  0  1  0  0  0  0  0  0  0  0
    0.1589   -1.1564    0.7690 H   0  0  0  1  0  0  0  0  0  0  0  0
   -1.3195   -0.8917   -0.1858 H   0  0  0  1  0  0  0  0  0  0  0  0
   -2.0805    0.7254    1.2705 H   0  0  0  1  0  0  0  0  0  0  0  0
   -0.6510    0.7345    2.3310 H   0  0  0  1  0  0  0  0  0  0  0  0
    2.7894    0.1451   -3.0182 H   0  0  0  1  0  0  0  0  0  0  0  0
   -2.9365    2.7896    0.3213 H   0  0  0  1  0  0  0  0  0  0  0  0
    0.4823    2.8100    2.8709 H   0  0  0  1  0  0  0  0  0  0  0  0
    3.9589   -1.2563   -4.4784 H   0  0  0  1  0  0  0  0  0  0  0  0
   -3.1332    5.2319    0.5655 H   0  0  0  1  0  0  0  0  0  0  0  0
    0.2854    5.2522    3.1155 H   0  0  0  1  0  0  0  0  0  0  0  0
   -1.5195    6.4638    1.9589 H   0  0  0  1  0  0  0  0  0  0  0  0
    4.2622   -3.1214   -6.1714 H   0  0  0  1  0  0  0  0  0  0  0  0
    5.0873   -3.4893   -1.9921 H   0  0  0  1  0  0  0  0  0  0  0  0
    6.2593   -5.6113   -2.4131 H   0  0  0  1  0  0  0  0  0  0  0  0
    6.4307   -6.4923   -4.7045 H   0  0  0  1  0  0  0  0  0  0  0  0
  1 22  1  0  0  0  0
  2 13  2  0  0  0  0
  3  9  1  0  0  0  0
  3 10  1  0  0  0  0
  3 11  1  0  0  0  0
  4  6  1  0  0  0  0
  4 13  1  0  0  0  0
  4 36  1  0  0  0  0
  5 13  1  0  0  0  0
  5 19  1  0  0  0  0
  5 39  1  0  0  0  0
  6  7  1  0  0  0  0
  6  8  1  0  0  0  0
  6 25  1  0  0  0  0
  7 10  1  0  0  0  0
  7 26  1  0  0  0  0
  7 27  1  0  0  0  0
  8  9  1  0  0  0  0
  8 28  1  0  0  0  0
  8 29  1  0  0  0  0
  9 32  1  0  0  0  0
  9 33  1  0  0  0  0
 10 30  1  0  0  0  0
 10 31  1  0  0  0  0
 11 12  1  0  0  0  0
 11 34  1  0  0  0  0
 11 35  1  0  0  0  0
 12 14  4  0  0  0  0
 12 15  4  0  0  0  0
 14 16  4  0  0  0  0
 14 37  1  0  0  0  0
 15 17  4  0  0  0  0
 15 38  1  0  0  0  0
 16 18  4  0  0  0  0
 16 40  1  0  0  0  0
 17 18  4  0  0  0  0
 17 41  1  0  0  0  0
 18 42  1  0  0  0  0
 19 20  4  0  0  0  0
 19 21  4  0  0  0  0
 20 22  4  0  0  0  0
 20 43  1  0  0  0  0
 21 23  4  0  0  0  0
 21 44  1  0  0  0  0
 22 24  4  0  0  0  0
 23 24  4  0  0  0  0
 23 45  1  0  0  0  0
 24 46  1  0  0  0  0
M  END
> <Activity>
0.01

> <Mapped(file=2032.csv.activities,property=Cached(PUBCHEM_COMPOUND_CID))>
100

> <MatchIndices>
141 

> <PUBCHEM_ATOM_DEF_STEREO_COUNT>
0

> <PUBCHEM_ATOM_UDEF_STEREO_COUNT>
0

> <PUBCHEM_BONDANNOTATIONS>
12  14  8
12  15  8
14  16  8
15  17  8
16  18  8
17  18  8
19  20  8
19  21  8
20  22  8
21  23  8
22  24  8
23  24  8

> <PUBCHEM_BOND_DEF_STEREO_COUNT>
0

> <PUBCHEM_BOND_UDEF_STEREO_COUNT>
0

> <PUBCHEM_CACTVS_COMPLEXITY>
392

> <PUBCHEM_CACTVS_HBOND_ACCEPTOR>
3

> <PUBCHEM_CACTVS_HBOND_DONOR>
2

> <PUBCHEM_CACTVS_ROTATABLE_BOND>
4

> <PUBCHEM_CACTVS_SUBSKEYS>
AAADceB7IQAAAAAAAAAAAAAAAAAAAAAAAAA8YIAAAAAAAAABQAAAHwAQAAAADCjBGAwxwIPAAACIAiRCUACCAAAhAgAIiIAIZIiIICLA0ZGEIAholgLIyCcQgAAOAAAAAAAAAAAAAAAAAAAAAAAAAAAAAA==

> <PUBCHEM_CACTVS_TAUTO_COUNT>
3

> <PUBCHEM_CACTVS_TPSA>
44.4

> <PUBCHEM_COMPONENT_COUNT>
1

> <PUBCHEM_COMPOUND_CANONICALIZED>
1

> <PUBCHEM_COMPOUND_CID>
6471104

> <PUBCHEM_COORDINATE_TYPE>
1
5
255

> <PUBCHEM_EXACT_MASS>
327.174691

> <PUBCHEM_HEAVY_ATOM_COUNT>
24

> <PUBCHEM_ISOTOPIC_ATOM_COUNT>
0

> <PUBCHEM_IUPAC_CAS_NAME>
1-(3-fluorophenyl)-3-[1-(phenylmethyl)-4-piperidinyl]urea

> <PUBCHEM_IUPAC_INCHI>
InChI=1S/C19H22FN3O/c20-16-7-4-8-18(13-16)22-19(24)21-17-9-11-23(12-10-17)14-15-5-2-1-3-6-15/h1-8,13,17H,9-12,14H2,(H2,21,22,24)

> <PUBCHEM_IUPAC_INCHIKEY>
KZHBSQMIYHCPDG-UHFFFAOYSA-N

> <PUBCHEM_IUPAC_NAME>
1-(1-benzylpiperidin-4-yl)-3-(3-fluorophenyl)urea

> <PUBCHEM_IUPAC_OPENEYE_NAME>
1-(1-benzyl-4-piperidyl)-3-(3-fluorophenyl)urea

> <PUBCHEM_IUPAC_SYSTEMATIC_NAME>
1-(3-fluorophenyl)-3-[1-(phenylmethyl)piperidin-4-yl]urea

> <PUBCHEM_IUPAC_TRADITIONAL_NAME>
1-(1-benzyl-4-piperidyl)-3-(3-fluorophenyl)urea

> <PUBCHEM_MOLECULAR_FORMULA>
C19H22FN3O

> <PUBCHEM_MOLECULAR_WEIGHT>
327.395883

> <PUBCHEM_MONOISOTOPIC_WEIGHT>
327.174691

> <PUBCHEM_OPENEYE_CAN_SMILES>
C1CN(CCC1NC(=O)NC2=CC(=CC=C2)F)CC3=CC=CC=C3

> <PUBCHEM_OPENEYE_ISO_SMILES>
C1CN(CCC1NC(=O)NC2=CC(=CC=C2)F)CC3=CC=CC=C3

> <PUBCHEM_TOTAL_CHARGE>
0

> <PUBCHEM_XLOGP3_AA>
3.1

$$$$
Largest isolated from Written by BCL::WriteToMDL,792502
JMcorina  04211410293D 1   1.00000     0.00000 
CORINA 3.49 0026  01.06.2011
 45 47  0  0  0  0  0  0  0  0999 V2000
   -0.0179    1.4653    0.0101 N   0  0  0  1  0  0  0  0  0  0  0  0
    2.0995    0.0476   -1.2596 N   0  0  0  1  0  0  0  0  0  0  0  0
    0.0021   -0.0041    0.0020 C   0  0  0  1  0  0  0  0  0  0  0  0
    1.3479    2.0078   -0.0000 C   0  0  0  1  0  0  0  0  0  0  0  0
    0.7337   -0.4948   -1.2495 C   0  0  0  1  0  0  0  0  0  0  0  0
    2.0796    1.5170   -1.2516 C   0  0  0  1  0  0  0  0  0  0  0  0
   -0.7783    1.9752    1.1589 C   0  0  0  1  0  0  0  0  0  0  0  0
    2.8599   -0.4622   -2.4084 C   0  0  0  1  0  0  0  0  0  0  0  0
   -0.9867    3.4597    1.0044 C   0  0  0  1  0  0  0  0  0  0  0  0
    4.3117   -0.0881   -2.2558 C   0  0  0  1  0  0  0  0  0  0  0  0
   -2.1057    3.9358    0.3470 C   0  0  0  1  0  0  0  0  0  0  0  0
   -0.0619    4.3454    1.5250 C   0  0  0  1  0  0  0  0  0  0  0  0
    5.1795   -0.9397   -1.5981 C   0  0  0  1  0  0  0  0  0  0  0  0
    4.7769    1.1041   -2.7785 C   0  0  0  1  0  0  0  0  0  0  0  0
   -2.2969    5.2975    0.2053 C   0  0  0  1  0  0  0  0  0  0  0  0
   -0.2531    5.7071    1.3833 C   0  0  0  1  0  0  0  0  0  0  0  0
   -1.3694    6.1831    0.7213 C   0  0  0  1  0  0  0  0  0  0  0  0
    6.5112   -0.5965   -1.4580 C   0  0  0  1  0  0  0  0  0  0  0  0
    6.1086    1.4473   -2.6385 C   0  0  0  1  0  0  0  0  0  0  0  0
    6.9753    0.5981   -1.9762 C   0  0  0  1  0  0  0  0  0  0  0  0
   -1.5776    7.6676    0.5663 C   0  0  0  1  0  0  0  0  0  0  0  0
    0.5192   -0.3656    0.8908 H   0  0  0  1  0  0  0  0  0  0  0  0
   -1.0204   -0.3816   -0.0030 H   0  0  0  1  0  0  0  0  0  0  0  0
    1.3066    3.0970   -0.0066 H   0  0  0  1  0  0  0  0  0  0  0  0
    1.8803    1.6690    0.8887 H   0  0  0  1  0  0  0  0  0  0  0  0
    3.1021    1.8946   -1.2465 H   0  0  0  1  0  0  0  0  0  0  0  0
    1.5625    1.8786   -2.1404 H   0  0  0  1  0  0  0  0  0  0  0  0
    0.2013   -0.1561   -2.1383 H   0  0  0  1  0  0  0  0  0  0  0  0
    0.7751   -1.5840   -1.2430 H   0  0  0  1  0  0  0  0  0  0  0  0
   -1.7458    1.4753    1.2050 H   0  0  0  1  0  0  0  0  0  0  0  0
   -0.2242    1.7797    2.0770 H   0  0  0  1  0  0  0  0  0  0  0  0
    2.7671   -1.5474   -2.4529 H   0  0  0  1  0  0  0  0  0  0  0  0
    2.4669   -0.0261   -3.3268 H   0  0  0  1  0  0  0  0  0  0  0  0
   -2.8304    3.2439   -0.0561 H   0  0  0  1  0  0  0  0  0  0  0  0
    0.8099    3.9735    2.0427 H   0  0  0  1  0  0  0  0  0  0  0  0
    4.8170   -1.8730   -1.1933 H   0  0  0  1  0  0  0  0  0  0  0  0
    4.0999    1.7672   -3.2966 H   0  0  0  1  0  0  0  0  0  0  0  0
   -3.1708    5.6695   -0.3090 H   0  0  0  1  0  0  0  0  0  0  0  0
    0.4693    6.3991    1.7903 H   0  0  0  1  0  0  0  0  0  0  0  0
    7.1890   -1.2615   -0.9435 H   0  0  0  1  0  0  0  0  0  0  0  0
    6.4721    2.3785   -3.0472 H   0  0  0  1  0  0  0  0  0  0  0  0
    8.0157    0.8664   -1.8665 H   0  0  0  1  0  0  0  0  0  0  0  0
   -2.1423    8.0462    1.4183 H   0  0  0  1  0  0  0  0  0  0  0  0
   -0.6100    8.1674    0.5207 H   0  0  0  1  0  0  0  0  0  0  0  0
   -2.1310    7.8629   -0.3522 H   0  0  0  1  0  0  0  0  0  0  0  0
  1  3  1  0  0  0  0
  1  4  1  0  0  0  0
  1  7  1  0  0  0  0
  2  5  1  0  0  0  0
  2  6  1  0  0  0  0
  2  8  1  0  0  0  0
  3  5  1  0  0  0  0
  3 22  1  0  0  0  0
  3 23  1  0  0  0  0
  4  6  1  0  0  0  0
  4 24  1  0  0  0  0
  4 25  1  0  0  0  0
  5 28  1  0  0  0  0
  5 29  1  0  0  0  0
  6 26  1  0  0  0  0
  6 27  1  0  0  0  0
  7  9  1  0  0  0  0
  7 30  1  0  0  0  0
  7 31  1  0  0  0  0
  8 10  1  0  0  0  0
  8 32  1  0  0  0  0
  8 33  1  0  0  0  0
  9 11  4  0  0  0  0
  9 12  4  0  0  0  0
 10 13  4  0  0  0  0
 10 14  4  0  0  0  0
 11 15  4  0  0  0  0
 11 34  1  0  0  0  0
 12 16  4  0  0  0  0
 12 35  1  0  0  0  0
 13 18  4  0  0  0  0
 13 36  1  0  0  0  0
 14 19  4  0  0  0  0
 14 37  1  0  0  0  0
 15 17  4  0  0  0  0
 15 38  1  0  0  0  0
 16 17  4  0  0  0  0
 16 39  1  0  0  0  0
 17 21  1  0  0  0  0
 18 20  4  0  0  0  0
 18 40  1  0  0  0  0
 19 20  4  0  0  0  0
 19 41  1  0  0  0  0
 20 42  1  0  0  0  0
 21 43  1  0  0  0  0
 21 44  1  0  0  0  0
 21 45  1  0  0  0  0
M  END
> <Activity>
0.01

> <Mapped(file=2032.csv.activities,property=Cached(PUBCHEM_COMPOUND_CID))>
100

> <MatchIndices>
19 

> <PUBCHEM_ATOM_DEF_STEREO_COUNT>
0

> <PUBCHEM_ATOM_UDEF_STEREO_COUNT>
0

> <PUBCHEM_BONDANNOTATIONS>
10  13  8
10  14  8
11  15  8
12  16  8
13  18  8
14  19  8
15  17  8
16  17  8
18  20  8
19  20  8
9  11  8
9  12  8

> <PUBCHEM_BOND_DEF_STEREO_COUNT>
0

> <PUBCHEM_BOND_UDEF_STEREO_COUNT>
0

> <PUBCHEM_CACTVS_COMPLEXITY>
282

> <PUBCHEM_CACTVS_HBOND_ACCEPTOR>
2

> <PUBCHEM_CACTVS_HBOND_DONOR>
0

> <PUBCHEM_CACTVS_ROTATABLE_BOND>
4

> <PUBCHEM_CACTVS_SUBSKEYS>
AAADceB7AAAAAAAAAAAAAAAAAAAAAAAAAAA8YIAAAAAAAAABQAAAHAAAAAAADADBGAQyAIMAAACAAiBCAACCAAAgAAAIiAAIBIgIYCKAkRGUIAhggACIiAcQgAAOQAAAAAAAAACAAAAAAAAAAAAAAAAAAA==

> <PUBCHEM_CACTVS_TAUTO_COUNT>
1

> <PUBCHEM_CACTVS_TPSA>
6.5

> <PUBCHEM_COMPONENT_COUNT>
1

> <PUBCHEM_COMPOUND_CANONICALIZED>
1

> <PUBCHEM_COMPOUND_CID>
792502

> <PUBCHEM_COORDINATE_TYPE>
1
5
255

> <PUBCHEM_EXACT_MASS>
280.193949

> <PUBCHEM_HEAVY_ATOM_COUNT>
21

> <PUBCHEM_ISOTOPIC_ATOM_COUNT>
0

> <PUBCHEM_IUPAC_CAS_NAME>
1-[(4-methylphenyl)methyl]-4-(phenylmethyl)piperazine

> <PUBCHEM_IUPAC_INCHI>
InChI=1S/C19H24N2/c1-17-7-9-19(10-8-17)16-21-13-11-20(12-14-21)15-18-5-3-2-4-6-18/h2-10H,11-16H2,1H3

> <PUBCHEM_IUPAC_INCHIKEY>
UZIYLIRBEDSOPG-UHFFFAOYSA-N

> <PUBCHEM_IUPAC_NAME>
1-benzyl-4-[(4-methylphenyl)methyl]piperazine

> <PUBCHEM_IUPAC_OPENEYE_NAME>
1-benzyl-4-(p-tolylmethyl)piperazine

> <PUBCHEM_IUPAC_SYSTEMATIC_NAME>
1-[(4-methylphenyl)methyl]-4-(phenylmethyl)piperazine

> <PUBCHEM_IUPAC_TRADITIONAL_NAME>
1-benzyl-4-(4-methylbenzyl)piperazine

> <PUBCHEM_MOLECULAR_FORMULA>
C19H24N2

> <PUBCHEM_MOLECULAR_WEIGHT>
280.40726

> <PUBCHEM_MONOISOTOPIC_WEIGHT>
280.193949

> <PUBCHEM_OPENEYE_CAN_SMILES>
CC1=CC=C(C=C1)CN2CCN(CC2)CC3=CC=CC=C3

> <PUBCHEM_OPENEYE_ISO_SMILES>
CC1=CC=C(C=C1)CN2CCN(CC2)CC3=CC=CC=C3

> <PUBCHEM_TOTAL_CHARGE>
0

> <PUBCHEM_XLOGP3_AA>
3.4

$$$$
Largest isolated from Written by BCL::WriteToMDL,23723675
JMcorina  04211410293D 1   1.00000     0.00000 
CORINA 3.49 0026  01.06.2011
 62 64  0  0  0  0  0  0  0  0999 V2000
   -0.0164    1.3548    0.0095 O   0  0  0  1  0  0  0  0  0  0  0  0
  -13.0445   -8.1746   -6.3246 O   0  0  0  1  0  0  0  0  0  0  0  0
   -6.6410   -4.3196   -4.2868 N   0  0  0  1  0  0  0  0  0  0  0  0
   -2.8958   -3.1127   -1.3719 N   0  0  0  1  0  0  0  0  0  0  0  0
   -4.7706   -3.6575   -2.8502 C   0  0  0  1  0  0  0  0  0  0  0  0
   -6.1431   -4.3322   -2.9054 C   0  0  0  1  0  0  0  0  0  0  0  0
   -4.8947   -2.2171   -3.3547 C   0  0  0  1  0  0  0  0  0  0  0  0
   -5.4608   -2.2299   -4.7774 C   0  0  0  1  0  0  0  0  0  0  0  0
   -6.8132   -2.9461   -4.7767 C   0  0  0  1  0  0  0  0  0  0  0  0
   -4.2621   -3.6513   -1.4072 C   0  0  0  1  0  0  0  0  0  0  0  0
   -7.8922   -5.0806   -4.4024 C   0  0  0  1  0  0  0  0  0  0  0  0
   -8.2471   -5.2571   -5.8801 C   0  0  0  1  0  0  0  0  0  0  0  0
   -2.4615   -2.8694    0.0102 C   0  0  0  1  0  0  0  0  0  0  0  0
   -1.9599   -4.0053   -2.0684 C   0  0  0  1  0  0  0  0  0  0  0  0
   -9.5307   -6.0377   -5.9987 C   0  0  0  1  0  0  0  0  0  0  0  0
   -1.1679   -2.0963    0.0015 C   0  0  0  1  0  0  0  0  0  0  0  0
  -10.7428   -5.3730   -6.0252 C   0  0  0  1  0  0  0  0  0  0  0  0
   -9.4940   -7.4171   -6.0866 C   0  0  0  1  0  0  0  0  0  0  0  0
   -1.1893   -0.7153    0.0096 C   0  0  0  1  0  0  0  0  0  0  0  0
    0.0396   -2.7702   -0.0092 C   0  0  0  1  0  0  0  0  0  0  0  0
  -11.9208   -6.0862   -6.1343 C   0  0  0  1  0  0  0  0  0  0  0  0
  -10.6692   -8.1350   -6.1958 C   0  0  0  1  0  0  0  0  0  0  0  0
    0.0021   -0.0041    0.0020 C   0  0  0  1  0  0  0  0  0  0  0  0
  -11.8870   -7.4707   -6.2173 C   0  0  0  1  0  0  0  0  0  0  0  0
    1.2280   -2.0639   -0.0164 C   0  0  0  1  0  0  0  0  0  0  0  0
    1.2119   -0.6824   -0.0136 C   0  0  0  1  0  0  0  0  0  0  0  0
    1.2479    2.0208    0.0010 C   0  0  0  1  0  0  0  0  0  0  0  0
  -12.9336   -9.5970   -6.4057 C   0  0  0  1  0  0  0  0  0  0  0  0
   -4.0703   -4.2049   -3.4811 H   0  0  0  1  0  0  0  0  0  0  0  0
   -6.8392   -3.7923   -2.2635 H   0  0  0  1  0  0  0  0  0  0  0  0
   -6.0555   -5.3624   -2.5603 H   0  0  0  1  0  0  0  0  0  0  0  0
   -5.5649   -1.6587   -2.7011 H   0  0  0  1  0  0  0  0  0  0  0  0
   -3.9117   -1.7463   -3.3580 H   0  0  0  1  0  0  0  0  0  0  0  0
   -5.5915   -1.2056   -5.1263 H   0  0  0  1  0  0  0  0  0  0  0  0
   -4.7714   -2.7549   -5.4386 H   0  0  0  1  0  0  0  0  0  0  0  0
   -7.2123   -2.9695   -5.7907 H   0  0  0  1  0  0  0  0  0  0  0  0
   -7.5063   -2.4127   -4.1260 H   0  0  0  1  0  0  0  0  0  0  0  0
   -4.2615   -4.6693   -1.0178 H   0  0  0  1  0  0  0  0  0  0  0  0
   -4.9141   -3.0284   -0.7949 H   0  0  0  1  0  0  0  0  0  0  0  0
   -7.7663   -6.0594   -3.9395 H   0  0  0  1  0  0  0  0  0  0  0  0
   -8.6937   -4.5407   -3.8982 H   0  0  0  1  0  0  0  0  0  0  0  0
   -8.3731   -4.2783   -6.3430 H   0  0  0  1  0  0  0  0  0  0  0  0
   -7.4456   -5.7970   -6.3843 H   0  0  0  1  0  0  0  0  0  0  0  0
   -3.2246   -2.2948    0.5351 H   0  0  0  1  0  0  0  0  0  0  0  0
   -2.3116   -3.8226    0.5171 H   0  0  0  1  0  0  0  0  0  0  0  0
   -2.2664   -4.1127   -3.1089 H   0  0  0  1  0  0  0  0  0  0  0  0
   -0.9559   -3.5829   -2.0271 H   0  0  0  1  0  0  0  0  0  0  0  0
   -1.9628   -4.9828   -1.5860 H   0  0  0  1  0  0  0  0  0  0  0  0
  -10.7687   -4.2953   -5.9602 H   0  0  0  1  0  0  0  0  0  0  0  0
   -8.5457   -7.9337   -6.0702 H   0  0  0  1  0  0  0  0  0  0  0  0
   -2.1326   -0.1894    0.0214 H   0  0  0  1  0  0  0  0  0  0  0  0
    0.0543   -3.8501   -0.0114 H   0  0  0  1  0  0  0  0  0  0  0  0
  -12.8674   -5.5666   -6.1545 H   0  0  0  1  0  0  0  0  0  0  0  0
  -10.6400   -9.2124   -6.2647 H   0  0  0  1  0  0  0  0  0  0  0  0
    2.1698   -2.5925   -0.0247 H   0  0  0  1  0  0  0  0  0  0  0  0
    2.1406   -0.1310   -0.0196 H   0  0  0  1  0  0  0  0  0  0  0  0
    1.8173    1.7308    0.8840 H   0  0  0  1  0  0  0  0  0  0  0  0
    1.8003    1.7403   -0.8958 H   0  0  0  1  0  0  0  0  0  0  0  0
    1.0905    3.0993    0.0083 H   0  0  0  1  0  0  0  0  0  0  0  0
  -13.9285  -10.0349   -6.4877 H   0  0  0  1  0  0  0  0  0  0  0  0
  -12.3448   -9.8662   -7.2825 H   0  0  0  1  0  0  0  0  0  0  0  0
  -12.4432   -9.9749   -5.5086 H   0  0  0  1  0  0  0  0  0  0  0  0
  1 23  1  0  0  0  0
  1 27  1  0  0  0  0
  2 24  1  0  0  0  0
  2 28  1  0  0  0  0
  3  6  1  0  0  0  0
  3  9  1  0  0  0  0
  3 11  1  0  0  0  0
  4 10  1  0  0  0  0
  4 13  1  0  0  0  0
  4 14  1  0  0  0  0
  5  6  1  0  0  0  0
  5  7  1  0  0  0  0
  5 10  1  0  0  0  0
  5 29  1  0  0  0  0
  6 30  1  0  0  0  0
  6 31  1  0  0  0  0
  7  8  1  0  0  0  0
  7 32  1  0  0  0  0
  7 33  1  0  0  0  0
  8  9  1  0  0  0  0
  8 34  1  0  0  0  0
  8 35  1  0  0  0  0
  9 36  1  0  0  0  0
  9 37  1  0  0  0  0
 10 38  1  0  0  0  0
 10 39  1  0  0  0  0
 11 12  1  0  0  0  0
 11 40  1  0  0  0  0
 11 41  1  0  0  0  0
 12 15  1  0  0  0  0
 12 42  1  0  0  0  0
 12 43  1  0  0  0  0
 13 16  1  0  0  0  0
 13 44  1  0  0  0  0
 13 45  1  0  0  0  0
 14 46  1  0  0  0  0
 14 47  1  0  0  0  0
 14 48  1  0  0  0  0
 15 17  4  0  0  0  0
 15 18  4  0  0  0  0
 16 19  4  0  0  0  0
 16 20  4  0  0  0  0
 17 21  4  0  0  0  0
 17 49  1  0  0  0  0
 18 22  4  0  0  0  0
 18 50  1  0  0  0  0
 19 23  4  0  0  0  0
 19 51  1  0  0  0  0
 20 25  4  0  0  0  0
 20 52  1  0  0  0  0
 21 24  4  0  0  0  0
 21 53  1  0  0  0  0
 22 24  4  0  0  0  0
 22 54  1  0  0  0  0
 23 26  4  0  0  0  0
 25 26  4  0  0  0  0
 25 55  1  0  0  0  0
 26 56  1  0  0  0  0
 27 57  1  0  0  0  0
 27 58  1  0  0  0  0
 27 59  1  0  0  0  0
 28 60  1  0  0  0  0
 28 61  1  0  0  0  0
 28 62  1  0  0  0  0
M  END
> <Activity>
0.01

> <Mapped(file=2032.csv.activities,property=Cached(PUBCHEM_COMPOUND_CID))>
100

> <MatchIndices>
95 

> <PUBCHEM_ATOM_DEF_STEREO_COUNT>
0

> <PUBCHEM_ATOM_UDEF_STEREO_COUNT>
1

> <PUBCHEM_BONDANNOTATIONS>
15  17  8
15  18  8
16  19  8
16  20  8
17  21  8
18  22  8
19  23  8
20  25  8
21  24  8
22  24  8
23  26  8
25  26  8
5  10  3

> <PUBCHEM_BOND_DEF_STEREO_COUNT>
0

> <PUBCHEM_BOND_UDEF_STEREO_COUNT>
0

> <PUBCHEM_CACTVS_COMPLEXITY>
425

> <PUBCHEM_CACTVS_HBOND_ACCEPTOR>
4

> <PUBCHEM_CACTVS_HBOND_DONOR>
0

> <PUBCHEM_CACTVS_ROTATABLE_BOND>
9

> <PUBCHEM_CACTVS_SUBSKEYS>
AAADcfB7MAAAAAAAAAAAAAAAAAAAAAAAAAA8YIAAAAAAAAABQAAAHgAAAAAADQTBmAYyBoMABACAAiBCAACCCAAgIAAIiAAODIgMJiKE8RuEMChkwBGIqAewwJAOIAABAAAAAABAAAIAAAAAAAAAAAAAAA==

> <PUBCHEM_CACTVS_TAUTO_COUNT>
1

> <PUBCHEM_CACTVS_TPSA>
24.9

> <PUBCHEM_COMPONENT_COUNT>
1

> <PUBCHEM_COMPOUND_CANONICALIZED>
1

> <PUBCHEM_COMPOUND_CID>
23723675

> <PUBCHEM_COORDINATE_TYPE>
1
5
255

> <PUBCHEM_EXACT_MASS>
382.262028

> <PUBCHEM_HEAVY_ATOM_COUNT>
28

> <PUBCHEM_ISOTOPIC_ATOM_COUNT>
0

> <PUBCHEM_IUPAC_CAS_NAME>
1-[1-[2-(4-methoxyphenyl)ethyl]-3-piperidinyl]-N-[(3-methoxyphenyl)methyl]-N-methylmethanamine

> <PUBCHEM_IUPAC_INCHI>
InChI=1S/C24H34N2O2/c1-25(17-21-6-4-8-24(16-21)28-3)18-22-7-5-14-26(19-22)15-13-20-9-11-23(27-2)12-10-20/h4,6,8-12,16,22H,5,7,13-15,17-19H2,1-3H3

> <PUBCHEM_IUPAC_INCHIKEY>
PYLLKFZVPVVKEW-UHFFFAOYSA-N

> <PUBCHEM_IUPAC_NAME>
1-[1-[2-(4-methoxyphenyl)ethyl]piperidin-3-yl]-N-[(3-methoxyphenyl)methyl]-N-methylmethanamine

> <PUBCHEM_IUPAC_OPENEYE_NAME>
1-[1-[2-(4-methoxyphenyl)ethyl]-3-piperidyl]-N-[(3-methoxyphenyl)methyl]-N-methyl-methanamine

> <PUBCHEM_IUPAC_SYSTEMATIC_NAME>
1-[1-[2-(4-methoxyphenyl)ethyl]piperidin-3-yl]-N-[(3-methoxyphenyl)methyl]-N-methyl-methanamine

> <PUBCHEM_IUPAC_TRADITIONAL_NAME>
m-anisyl-[[1-[2-(4-methoxyphenyl)ethyl]-3-piperidyl]methyl]-methyl-amine

> <PUBCHEM_MOLECULAR_FORMULA>
C24H34N2O2

> <PUBCHEM_MOLECULAR_WEIGHT>
382.53896

> <PUBCHEM_MONOISOTOPIC_WEIGHT>
382.262028

> <PUBCHEM_OPENEYE_CAN_SMILES>
CN(CC1CCCN(C1)CCC2=CC=C(C=C2)OC)CC3=CC(=CC=C3)OC

> <PUBCHEM_OPENEYE_ISO_SMILES>
CN(CC1CCCN(C1)CCC2=CC=C(C=C2)OC)CC3=CC(=CC=C3)OC

> <PUBCHEM_TOTAL_CHARGE>
0

> <PUBCHEM_XLOGP3_AA>
4.4

$$$$
Largest isolated from Written by BCL::WriteToMDL,2976394
JMcorina  04211410293D 1   1.00000     0.00000 
CORINA 3.49 0026  01.06.2011
 45 46  0  0  0  0  0  0  0  0999 V2000
    0.0728    1.4641    0.8813 O   0  0  0  1  0  0  0  0  0  0  0  0
   -4.7327   -3.7290    3.1914 O   0  0  0  1  0  0  0  0  0  0  0  0
    2.5242    5.4444    0.0067 O   0  0  0  1  0  0  0  0  0  0  0  0
   -2.6108   -2.4998    1.7477 N   0  0  0  1  0  0  0  0  0  0  0  0
   -1.2444   -1.9695    1.6493 C   0  0  0  1  0  0  0  0  0  0  0  0
   -1.2992   -0.4797    1.3052 C   0  0  0  1  0  0  0  0  0  0  0  0
   -2.5975   -3.9312    2.0776 C   0  0  0  1  0  0  0  0  0  0  0  0
   -4.0351   -4.4465    2.1713 C   0  0  0  1  0  0  0  0  0  0  0  0
    0.1240    0.0727    1.2027 C   0  0  0  1  0  0  0  0  0  0  0  0
   -4.0211   -5.9373    2.5149 C   0  0  0  1  0  0  0  0  0  0  0  0
    1.2607    2.1117    0.7529 C   0  0  0  1  0  0  0  0  0  0  0  0
    1.2843    3.4627    0.4421 C   0  0  0  1  0  0  0  0  0  0  0  0
    2.4507    1.4227    0.9382 C   0  0  0  1  0  0  0  0  0  0  0  0
    2.4977    4.1205    0.3116 C   0  0  0  1  0  0  0  0  0  0  0  0
    3.6591    2.0805    0.8076 C   0  0  0  1  0  0  0  0  0  0  0  0
    3.6856    3.4253    0.4924 C   0  0  0  1  0  0  0  0  0  0  0  0
    3.7362    6.0451   -0.1227 C   0  0  0  1  0  0  0  0  0  0  0  0
    4.3649    6.0827   -1.3591 C   0  0  0  1  0  0  0  0  0  0  0  0
    4.3448    6.6270    0.9803 C   0  0  0  1  0  0  0  0  0  0  0  0
    5.5969    6.6939   -1.4879 C   0  0  0  1  0  0  0  0  0  0  0  0
    5.5769    7.2369    0.8460 C   0  0  0  1  0  0  0  0  0  0  0  0
    6.2040    7.2676   -0.3859 C   0  0  0  1  0  0  0  0  0  0  0  0
   -0.7331   -2.1037    2.6025 H   0  0  0  1  0  0  0  0  0  0  0  0
   -0.7029   -2.5031    0.8682 H   0  0  0  1  0  0  0  0  0  0  0  0
   -1.8105   -0.3455    0.3520 H   0  0  0  1  0  0  0  0  0  0  0  0
   -1.8407    0.0540    2.0863 H   0  0  0  1  0  0  0  0  0  0  0  0
   -2.0653   -4.4785    1.2995 H   0  0  0  1  0  0  0  0  0  0  0  0
   -2.0955   -4.0790    3.0338 H   0  0  0  1  0  0  0  0  0  0  0  0
   -3.1534   -1.9788    2.4202 H   0  0  0  1  0  0  0  0  0  0  0  0
   -4.5370   -4.2987    1.2151 H   0  0  0  1  0  0  0  0  0  0  0  0
    0.6655   -0.4610    0.4217 H   0  0  0  1  0  0  0  0  0  0  0  0
    0.6353   -0.0615    2.1560 H   0  0  0  1  0  0  0  0  0  0  0  0
   -5.0453   -6.3044    2.5816 H   0  0  0  1  0  0  0  0  0  0  0  0
   -3.4890   -6.4846    1.7368 H   0  0  0  1  0  0  0  0  0  0  0  0
   -3.5192   -6.0851    3.4711 H   0  0  0  1  0  0  0  0  0  0  0  0
   -4.3407   -3.8154    4.0712 H   0  0  0  1  0  0  0  0  0  0  0  0
    0.3590    4.0017    0.3015 H   0  0  0  1  0  0  0  0  0  0  0  0
    2.4327    0.3714    1.1850 H   0  0  0  1  0  0  0  0  0  0  0  0
    4.5843    1.5424    0.9523 H   0  0  0  1  0  0  0  0  0  0  0  0
    4.6312    3.9372    0.3909 H   0  0  0  1  0  0  0  0  0  0  0  0
    3.8914    5.6341   -2.2200 H   0  0  0  1  0  0  0  0  0  0  0  0
    3.8554    6.6033    1.9427 H   0  0  0  1  0  0  0  0  0  0  0  0
    6.0866    6.7234   -2.4500 H   0  0  0  1  0  0  0  0  0  0  0  0
    6.0508    7.6903    1.7041 H   0  0  0  1  0  0  0  0  0  0  0  0
    7.1676    7.7444   -0.4886 H   0  0  0  1  0  0  0  0  0  0  0  0
  1  9  1  0  0  0  0
  1 11  1  0  0  0  0
  2  8  1  0  0  0  0
  2 36  1  0  0  0  0
  3 14  1  0  0  0  0
  3 17  1  0  0  0  0
  4  5  1  0  0  0  0
  4  7  1  0  0  0  0
  4 29  1  0  0  0  0
  5  6  1  0  0  0  0
  5 23  1  0  0  0  0
  5 24  1  0  0  0  0
  6  9  1  0  0  0  0
  6 25  1  0  0  0  0
  6 26  1  0  0  0  0
  7  8  1  0  0  0  0
  7 27  1  0  0  0  0
  7 28  1  0  0  0  0
  8 10  1  0  0  0  0
  8 30  1  0  0  0  0
  9 31  1  0  0  0  0
  9 32  1  0  0  0  0
 10 33  1  0  0  0  0
 10 34  1  0  0  0  0
 10 35  1  0  0  0  0
 11 12  4  0  0  0  0
 11 13  4  0  0  0  0
 12 14  4  0  0  0  0
 12 37  1  0  0  0  0
 13 15  4  0  0  0  0
 13 38  1  0  0  0  0
 14 16  4  0  0  0  0
 15 16  4  0  0  0  0
 15 39  1  0  0  0  0
 16 40  1  0  0  0  0
 17 18  4  0  0  0  0
 17 19  4  0  0  0  0
 18 20  4  0  0  0  0
 18 41  1  0  0  0  0
 19 21  4  0  0  0  0
 19 42  1  0  0  0  0
 20 22  4  0  0  0  0
 20 43  1  0  0  0  0
 21 22  4  0  0  0  0
 21 44  1  0  0  0  0
 22 45  1  0  0  0  0
M  END
> <Activity>
0.01

> <Mapped(file=2032.csv.activities,property=Cached(PUBCHEM_COMPOUND_CID))>
100

> <MatchIndices>
9 

> <PUBCHEM_ATOM_DEF_STEREO_COUNT>
0

> <PUBCHEM_ATOM_UDEF_STEREO_COUNT>
1

> <PUBCHEM_BONDANNOTATIONS>
12  36  3
15  16  8
15  17  8
16  18  8
17  19  8
18  20  8
19  20  8
21  22  8
21  23  8
22  24  8
23  25  8
24  26  8
25  26  8

> <PUBCHEM_BOND_DEF_STEREO_COUNT>
0

> <PUBCHEM_BOND_UDEF_STEREO_COUNT>
0

> <PUBCHEM_CACTVS_COMPLEXITY>
353

> <PUBCHEM_CACTVS_HBOND_ACCEPTOR>
8

> <PUBCHEM_CACTVS_HBOND_DONOR>
4

> <PUBCHEM_CACTVS_ROTATABLE_BOND>
10

> <PUBCHEM_CACTVS_SUBSKEYS>
AAADceB6OAAAAAAAAAAAAAAAAAAAAAAAAAAwYAAAAAAAAAABQAAAHgAQCAAACBThkAYyDoLABgCIACDSCAICCAAgIAAIiIBOCIgPNyKEMRqGOCCn0BWZqAeAYAwAAAAACAAAAAAAAAAQAAAAAAAAAAAAAA==

> <PUBCHEM_CACTVS_TAUTO_COUNT>
1

> <PUBCHEM_CACTVS_TPSA>
125

> <PUBCHEM_COMPONENT_COUNT>
2

> <PUBCHEM_COMPOUND_CANONICALIZED>
1

> <PUBCHEM_COMPOUND_CID>
2976394

> <PUBCHEM_COORDINATE_TYPE>
1
5
255

> <PUBCHEM_EXACT_MASS>
391.163102

> <PUBCHEM_HEAVY_ATOM_COUNT>
28

> <PUBCHEM_ISOTOPIC_ATOM_COUNT>
0

> <PUBCHEM_IUPAC_CAS_NAME>
oxalic acid; 1-[3-(3-phenoxyphenoxy)propylamino]-2-propanol

> <PUBCHEM_IUPAC_INCHI>
InChI=1S/C18H23NO3.C2H2O4/c1-15(20)14-19-11-6-12-21-17-9-5-10-18(13-17)22-16-7-3-2-4-8-16;3-1(4)2(5)6/h2-5,7-10,13,15,19-20H,6,11-12,14H2,1H3;(H,3,4)(H,5,6)

> <PUBCHEM_IUPAC_INCHIKEY>
KJZVGRXWNKJRKR-UHFFFAOYSA-N

> <PUBCHEM_IUPAC_NAME>
oxalic acid; 1-[3-(3-phenoxyphenoxy)propylamino]propan-2-ol

> <PUBCHEM_IUPAC_OPENEYE_NAME>
oxalic acid; 1-[3-(3-phenoxyphenoxy)propylamino]propan-2-ol

> <PUBCHEM_IUPAC_SYSTEMATIC_NAME>
ethanedioic acid; 1-[3-(3-phenoxyphenoxy)propylamino]propan-2-ol

> <PUBCHEM_IUPAC_TRADITIONAL_NAME>
oxalic acid; 1-[3-(3-phenoxyphenoxy)propylamino]propan-2-ol

> <PUBCHEM_MOLECULAR_FORMULA>
C20H25NO7

> <PUBCHEM_MOLECULAR_WEIGHT>
391.415

> <PUBCHEM_MONOISOTOPIC_WEIGHT>
391.163102

> <PUBCHEM_OPENEYE_CAN_SMILES>
CC(CNCCCOC1=CC=CC(=C1)OC2=CC=CC=C2)O.C(=O)(C(=O)O)O

> <PUBCHEM_OPENEYE_ISO_SMILES>
CC(CNCCCOC1=CC=CC(=C1)OC2=CC=CC=C2)O.C(=O)(C(=O)O)O

> <PUBCHEM_TOTAL_CHARGE>
0

$$$$
Largest isolated from Written by BCL::WriteToMDL,2838218
JMcorina  04211410293D 1   1.00000     0.00000 
CORINA 3.49 0026  01.06.2011
 43 45  0  0  0  0  0  0  0  0999 V2000
   14.2228   13.6755    5.9053 O   0  0  0  1  0  0  0  0  0  0  0  0
   11.3344   12.5959    7.3121 N   0  0  0  1  0  0  0  0  0  0  0  0
   13.0627   11.6269    5.9054 C   0  0  0  1  0  0  0  0  0  0  0  0
   11.7508   12.3683    5.9218 C   0  0  0  1  0  0  0  0  0  0  0  0
   13.0803   10.2225    5.8918 C   0  0  0  1  0  0  0  0  0  0  0  0
   10.0562   13.3179    7.3673 C   0  0  0  1  0  0  0  0  0  0  0  0
   14.3240    9.5421    5.8759 C   0  0  0  1  0  0  0  0  0  0  0  0
    9.6563   13.5359    8.8280 C   0  0  0  1  0  0  0  0  0  0  0  0
   14.2413   12.3168    5.8978 C   0  0  0  1  0  0  0  0  0  0  0  0
   15.5179   10.2846    5.8738 C   0  0  0  1  0  0  0  0  0  0  0  0
   11.8880    9.4784    5.8942 C   0  0  0  1  0  0  0  0  0  0  0  0
   15.4669   11.6434    5.8821 C   0  0  0  1  0  0  0  0  0  0  0  0
    8.3451   14.2766    8.8846 C   0  0  0  1  0  0  0  0  0  0  0  0
   14.3402    8.1374    5.8628 C   0  0  0  1  0  0  0  0  0  0  0  0
   11.9428    8.1183    5.8812 C   0  0  0  1  0  0  0  0  0  0  0  0
   13.1652    7.4498    5.8656 C   0  0  0  1  0  0  0  0  0  0  0  0
    7.1548   13.5741    8.9049 C   0  0  0  1  0  0  0  0  0  0  0  0
    8.3329   15.6584    8.9221 C   0  0  0  1  0  0  0  0  0  0  0  0
    5.9520   14.2535    8.9568 C   0  0  0  1  0  0  0  0  0  0  0  0
    7.1302   16.3378    8.9740 C   0  0  0  1  0  0  0  0  0  0  0  0
    5.9397   15.6354    8.9889 C   0  0  0  1  0  0  0  0  0  0  0  0
   15.4871   14.3415    5.8968 C   0  0  0  1  0  0  0  0  0  0  0  0
   10.9929   11.7771    5.4077 H   0  0  0  1  0  0  0  0  0  0  0  0
   11.8687   13.3267    5.4163 H   0  0  0  1  0  0  0  0  0  0  0  0
   10.1624   14.2830    6.8718 H   0  0  0  1  0  0  0  0  0  0  0  0
    9.2866   12.7334    6.8632 H   0  0  0  1  0  0  0  0  0  0  0  0
   11.2805   11.7260    7.8205 H   0  0  0  1  0  0  0  0  0  0  0  0
    9.5502   12.5708    9.3235 H   0  0  0  1  0  0  0  0  0  0  0  0
   10.4259   14.1204    9.3320 H   0  0  0  1  0  0  0  0  0  0  0  0
   16.4716    9.7779    5.8622 H   0  0  0  1  0  0  0  0  0  0  0  0
   10.9333    9.9831    5.9067 H   0  0  0  1  0  0  0  0  0  0  0  0
   16.3860   12.2107    5.8760 H   0  0  0  1  0  0  0  0  0  0  0  0
   15.2801    7.6056    5.8502 H   0  0  0  1  0  0  0  0  0  0  0  0
   11.0251    7.5489    5.8831 H   0  0  0  1  0  0  0  0  0  0  0  0
   13.1808    6.3700    5.8555 H   0  0  0  1  0  0  0  0  0  0  0  0
    7.1644   12.4944    8.8797 H   0  0  0  1  0  0  0  0  0  0  0  0
    9.2631   16.2071    8.9111 H   0  0  0  1  0  0  0  0  0  0  0  0
    5.0220   13.7047    8.9719 H   0  0  0  1  0  0  0  0  0  0  0  0
    7.1207   17.4173    9.0036 H   0  0  0  1  0  0  0  0  0  0  0  0
    5.0000   16.1662    9.0292 H   0  0  0  1  0  0  0  0  0  0  0  0
   15.3297   15.4201    5.9041 H   0  0  0  1  0  0  0  0  0  0  0  0
   16.0565   14.0515    6.7799 H   0  0  0  1  0  0  0  0  0  0  0  0
   16.0395   14.0611    5.0000 H   0  0  0  1  0  0  0  0  0  0  0  0
  1  9  1  0  0  0  0
  1 22  1  0  0  0  0
  2  4  1  0  0  0  0
  2  6  1  0  0  0  0
  2 27  1  0  0  0  0
  3  4  1  0  0  0  0
  3  5  4  0  0  0  0
  3  9  4  0  0  0  0
  4 23  1  0  0  0  0
  4 24  1  0  0  0  0
  5  7  4  0  0  0  0
  5 11  4  0  0  0  0
  6  8  1  0  0  0  0
  6 25  1  0  0  0  0
  6 26  1  0  0  0  0
  7 10  4  0  0  0  0
  7 14  4  0  0  0  0
  8 13  1  0  0  0  0
  8 28  1  0  0  0  0
  8 29  1  0  0  0  0
  9 12  4  0  0  0  0
 10 12  4  0  0  0  0
 10 30  1  0  0  0  0
 11 15  4  0  0  0  0
 11 31  1  0  0  0  0
 12 32  1  0  0  0  0
 13 17  4  0  0  0  0
 13 18  4  0  0  0  0
 14 16  4  0  0  0  0
 14 33  1  0  0  0  0
 15 16  4  0  0  0  0
 15 34  1  0  0  0  0
 16 35  1  0  0  0  0
 17 19  4  0  0  0  0
 17 36  1  0  0  0  0
 18 20  4  0  0  0  0
 18 37  1  0  0  0  0
 19 21  4  0  0  0  0
 19 38  1  0  0  0  0
 20 21  4  0  0  0  0
 20 39  1  0  0  0  0
 21 40  1  0  0  0  0
 22 41  1  0  0  0  0
 22 42  1  0  0  0  0
 22 43  1  0  0  0  0
M  END
> <Activity>
0.01

> <Mapped(file=2032.csv.activities,property=Cached(PUBCHEM_COMPOUND_CID))>
100

> <MatchIndices>
125 

> <PUBCHEM_ATOM_DEF_STEREO_COUNT>
0

> <PUBCHEM_ATOM_UDEF_STEREO_COUNT>
0

> <PUBCHEM_BONDANNOTATIONS>
10  13  8
11  13  8
12  16  8
14  18  8
14  19  8
15  17  8
16  17  8
18  20  8
19  21  8
20  22  8
21  22  8
4  10  8
4  6  8
6  12  8
6  8  8
8  11  8
8  15  8

> <PUBCHEM_BOND_DEF_STEREO_COUNT>
0

> <PUBCHEM_BOND_UDEF_STEREO_COUNT>
0

> <PUBCHEM_CACTVS_COMPLEXITY>
313

> <PUBCHEM_CACTVS_HBOND_ACCEPTOR>
2

> <PUBCHEM_CACTVS_HBOND_DONOR>
2

> <PUBCHEM_CACTVS_ROTATABLE_BOND>
6

> <PUBCHEM_CACTVS_SUBSKEYS>
AAADceB6IAAEAAAAAAAAAAAAAAAAAAAAAAAwYMAAAAAAAADBVAAAHgAQAAAADATBmAYyBsLABACAAiBCAACCCAAgIAAIiIAODIgMJiKEsRuEMChm0BGIqAeQwPAOoAADAAAYAABAAAYAADAAAAAAAAAAAA==

> <PUBCHEM_CACTVS_TAUTO_COUNT>
1

> <PUBCHEM_CACTVS_TPSA>
21.3

> <PUBCHEM_COMPONENT_COUNT>
2

> <PUBCHEM_COMPOUND_CANONICALIZED>
1

> <PUBCHEM_COMPOUND_CID>
2838218

> <PUBCHEM_COORDINATE_TYPE>
1
5
255

> <PUBCHEM_EXACT_MASS>
327.138992

> <PUBCHEM_HEAVY_ATOM_COUNT>
23

> <PUBCHEM_ISOTOPIC_ATOM_COUNT>
0

> <PUBCHEM_IUPAC_CAS_NAME>
N-[(2-methoxy-1-naphthalenyl)methyl]-2-phenylethanamine hydrochloride

> <PUBCHEM_IUPAC_INCHI>
InChI=1S/C20H21NO.ClH/c1-22-20-12-11-17-9-5-6-10-18(17)19(20)15-21-14-13-16-7-3-2-4-8-16;/h2-12,21H,13-15H2,1H3;1H

> <PUBCHEM_IUPAC_INCHIKEY>
VFUDWBIJYZEYNE-UHFFFAOYSA-N

> <PUBCHEM_IUPAC_NAME>
N-[(2-methoxynaphthalen-1-yl)methyl]-2-phenylethanamine hydrochloride

> <PUBCHEM_IUPAC_OPENEYE_NAME>
N-[(2-methoxy-1-naphthyl)methyl]-2-phenyl-ethanamine hydrochloride

> <PUBCHEM_IUPAC_SYSTEMATIC_NAME>
N-[(2-methoxynaphthalen-1-yl)methyl]-2-phenyl-ethanamine hydrochloride

> <PUBCHEM_IUPAC_TRADITIONAL_NAME>
(2-methoxy-1-naphthyl)methyl-phenethyl-amine hydrochloride

> <PUBCHEM_MOLECULAR_FORMULA>
C20H22ClNO

> <PUBCHEM_MOLECULAR_WEIGHT>
327.84778

> <PUBCHEM_MONOISOTOPIC_WEIGHT>
327.138992

> <PUBCHEM_OPENEYE_CAN_SMILES>
COC1=C(C2=CC=CC=C2C=C1)CNCCC3=CC=CC=C3.Cl

> <PUBCHEM_OPENEYE_ISO_SMILES>
COC1=C(C2=CC=CC=C2C=C1)CNCCC3=CC=CC=C3.Cl

> <PUBCHEM_TOTAL_CHARGE>
0

$$$$
Largest isolated from Written by BCL::WriteToMDL,6917789
JMcorina  04211410293D 1   1.00000     0.00000 
CORINA 3.49 0026  01.06.2011
 43 44  0  0  0  0  0  0  0  0999 V2000
    9.7113   13.4908    5.9047 O   0  0  0  1  0  0  0  0  0  0  0  0
    6.9006    8.0042    5.9020 N   0  0  0  1  0  0  0  0  0  0  0  0
    8.2953   11.5324    5.9077 C   0  0  0  1  0  0  0  0  0  0  0  0
    8.3161   10.0026    5.8992 C   0  0  0  1  0  0  0  0  0  0  0  0
    9.7307   12.0620    5.8968 C   0  0  0  1  0  0  0  0  0  0  0  0
    6.8807    9.4730    5.9101 C   0  0  0  1  0  0  0  0  0  0  0  0
   10.9688   15.5106    5.9035 C   0  0  0  1  0  0  0  0  0  0  0  0
    9.6952   16.3160    5.9195 C   0  0  0  1  0  0  0  0  0  0  0  0
   10.9137   14.1242    5.8966 C   0  0  0  1  0  0  0  0  0  0  0  0
    9.2175   16.4722    7.3403 C   0  0  0  1  0  0  0  0  0  0  0  0
   12.1920   16.1520    5.8900 C   0  0  0  1  0  0  0  0  0  0  0  0
   12.0878   13.3858    5.8819 C   0  0  0  1  0  0  0  0  0  0  0  0
   13.3612   15.4136    5.8753 C   0  0  0  1  0  0  0  0  0  0  0  0
   13.3089   14.0321    5.8741 C   0  0  0  1  0  0  0  0  0  0  0  0
    9.6367   17.5513    8.0957 C   0  0  0  1  0  0  0  0  0  0  0  0
    8.3556   15.5394    7.8861 C   0  0  0  1  0  0  0  0  0  0  0  0
    5.5365    7.4591    5.9121 C   0  0  0  1  0  0  0  0  0  0  0  0
    9.1985   17.6945    9.3989 C   0  0  0  1  0  0  0  0  0  0  0  0
    7.9174   15.6827    9.1893 C   0  0  0  1  0  0  0  0  0  0  0  0
    8.3408   16.7589    9.9465 C   0  0  0  1  0  0  0  0  0  0  0  0
    7.7681   11.8935    5.0246 H   0  0  0  1  0  0  0  0  0  0  0  0
    7.7851   11.8839    6.8044 H   0  0  0  1  0  0  0  0  0  0  0  0
    8.8263    9.6511    5.0024 H   0  0  0  1  0  0  0  0  0  0  0  0
    8.8433    9.6415    6.7823 H   0  0  0  1  0  0  0  0  0  0  0  0
   10.2409   11.7105    5.0000 H   0  0  0  1  0  0  0  0  0  0  0  0
   10.2579   11.7009    6.7799 H   0  0  0  1  0  0  0  0  0  0  0  0
    6.3535    9.8341    5.0270 H   0  0  0  1  0  0  0  0  0  0  0  0
    6.3705    9.8245    6.8069 H   0  0  0  1  0  0  0  0  0  0  0  0
    9.8818   17.2997    5.4887 H   0  0  0  1  0  0  0  0  0  0  0  0
    8.9328   15.8018    5.3343 H   0  0  0  1  0  0  0  0  0  0  0  0
   12.2354   17.2312    5.8905 H   0  0  0  1  0  0  0  0  0  0  0  0
   12.0475   12.3066    5.8768 H   0  0  0  1  0  0  0  0  0  0  0  0
    7.4241    7.6540    5.1137 H   0  0  0  1  0  0  0  0  0  0  0  0
   14.3166   15.9170    5.8644 H   0  0  0  1  0  0  0  0  0  0  0  0
   14.2234   13.4577    5.8630 H   0  0  0  1  0  0  0  0  0  0  0  0
   10.3068   18.2822    7.6679 H   0  0  0  1  0  0  0  0  0  0  0  0
    8.0243   14.6989    7.2944 H   0  0  0  1  0  0  0  0  0  0  0  0
    5.5804    6.3700    5.9059 H   0  0  0  1  0  0  0  0  0  0  0  0
    5.0170    7.7967    6.8089 H   0  0  0  1  0  0  0  0  0  0  0  0
    5.0000    7.8062    5.0291 H   0  0  0  1  0  0  0  0  0  0  0  0
    9.5266   18.5372    9.9894 H   0  0  0  1  0  0  0  0  0  0  0  0
    7.2437   14.9541    9.6157 H   0  0  0  1  0  0  0  0  0  0  0  0
    7.9987   16.8707   10.9648 H   0  0  0  1  0  0  0  0  0  0  0  0
  1  5  1  0  0  0  0
  1  9  1  0  0  0  0
  2  6  1  0  0  0  0
  2 17  1  0  0  0  0
  2 33  1  0  0  0  0
  3  4  1  0  0  0  0
  3  5  1  0  0  0  0
  3 21  1  0  0  0  0
  3 22  1  0  0  0  0
  4  6  1  0  0  0  0
  4 23  1  0  0  0  0
  4 24  1  0  0  0  0
  5 25  1  0  0  0  0
  5 26  1  0  0  0  0
  6 27  1  0  0  0  0
  6 28  1  0  0  0  0
  7  8  1  0  0  0  0
  7  9  4  0  0  0  0
  7 11  4  0  0  0  0
  8 10  1  0  0  0  0
  8 29  1  0  0  0  0
  8 30  1  0  0  0  0
  9 12  4  0  0  0  0
 10 15  4  0  0  0  0
 10 16  4  0  0  0  0
 11 13  4  0  0  0  0
 11 31  1  0  0  0  0
 12 14  4  0  0  0  0
 12 32  1  0  0  0  0
 13 14  4  0  0  0  0
 13 34  1  0  0  0  0
 14 35  1  0  0  0  0
 15 18  4  0  0  0  0
 15 36  1  0  0  0  0
 16 19  4  0  0  0  0
 16 37  1  0  0  0  0
 17 38  1  0  0  0  0
 17 39  1  0  0  0  0
 17 40  1  0  0  0  0
 18 20  4  0  0  0  0
 18 41  1  0  0  0  0
 19 20  4  0  0  0  0
 19 42  1  0  0  0  0
 20 43  1  0  0  0  0
M  END
> <Activity>
0.01

> <Mapped(file=2032.csv.activities,property=Cached(PUBCHEM_COMPOUND_CID))>
100

> <MatchIndices>
123 

> <PUBCHEM_ATOM_DEF_STEREO_COUNT>
0

> <PUBCHEM_ATOM_UDEF_STEREO_COUNT>
0

> <PUBCHEM_BONDANNOTATIONS>
10  13  8
11  16  8
11  17  8
12  14  8
13  15  8
14  15  8
16  19  8
17  20  8
19  21  8
20  21  8
8  10  8
8  12  8

> <PUBCHEM_BOND_DEF_STEREO_COUNT>
0

> <PUBCHEM_BOND_UDEF_STEREO_COUNT>
0

> <PUBCHEM_CACTVS_COMPLEXITY>
238

> <PUBCHEM_CACTVS_HBOND_ACCEPTOR>
2

> <PUBCHEM_CACTVS_HBOND_DONOR>
2

> <PUBCHEM_CACTVS_ROTATABLE_BOND>
8

> <PUBCHEM_CACTVS_SUBSKEYS>
AAADceB6IAAEAAAAAAAAAAAAAAAAAAAAAAAwYAAAAAAAAAABQAAAHgAQAAAADAThmAYyBoLABACAAiBCAAACCAAgIAAIiIAOCIgMJiKEsRqGOCCk0BEIqAegwOAOAAAAAAAIAAAAAAAAABAAAAAAAAAAAA==

> <PUBCHEM_CACTVS_TAUTO_COUNT>
1

> <PUBCHEM_CACTVS_TPSA>
21.3

> <PUBCHEM_COMPONENT_COUNT>
2

> <PUBCHEM_COMPOUND_CANONICALIZED>
1

> <PUBCHEM_COMPOUND_CID>
6917789

> <PUBCHEM_COORDINATE_TYPE>
1
5
255

> <PUBCHEM_EXACT_MASS>
305.154642

> <PUBCHEM_HEAVY_ATOM_COUNT>
21

> <PUBCHEM_ISOTOPIC_ATOM_COUNT>
0

> <PUBCHEM_IUPAC_CAS_NAME>
N-methyl-4-[2-(phenylmethyl)phenoxy]-1-butanamine hydrochloride

> <PUBCHEM_IUPAC_INCHI>
InChI=1S/C18H23NO.ClH/c1-19-13-7-8-14-20-18-12-6-5-11-17(18)15-16-9-3-2-4-10-16;/h2-6,9-12,19H,7-8,13-15H2,1H3;1H

> <PUBCHEM_IUPAC_INCHIKEY>
MEAHDXWXNNDSAK-UHFFFAOYSA-N

> <PUBCHEM_IUPAC_NAME>
4-(2-benzylphenoxy)-N-methylbutan-1-amine hydrochloride

> <PUBCHEM_IUPAC_OPENEYE_NAME>
4-(2-benzylphenoxy)-N-methyl-butan-1-amine hydrochloride

> <PUBCHEM_IUPAC_SYSTEMATIC_NAME>
N-methyl-4-[2-(phenylmethyl)phenoxy]butan-1-amine hydrochloride

> <PUBCHEM_IUPAC_TRADITIONAL_NAME>
4-(2-benzylphenoxy)butyl-methyl-amine hydrochloride

> <PUBCHEM_MOLECULAR_FORMULA>
C18H24ClNO

> <PUBCHEM_MOLECULAR_WEIGHT>
305.84226

> <PUBCHEM_MONOISOTOPIC_WEIGHT>
305.154642

> <PUBCHEM_OPENEYE_CAN_SMILES>
CNCCCCOC1=CC=CC=C1CC2=CC=CC=C2.Cl

> <PUBCHEM_OPENEYE_ISO_SMILES>
CNCCCCOC1=CC=CC=C1CC2=CC=CC=C2.Cl

> <PUBCHEM_TOTAL_CHARGE>
0

$$$$
Largest isolated from Written by BCL::WriteToMDL,2962951
JMcorina  04211410293D 1   1.00000     0.00000 
CORINA 3.49 0026  01.06.2011
 37 38  0  0  0  0  0  0  0  0999 V2000
   -0.0172    1.4168    0.0098 S   0  0  0  1  0  0  0  0  0  0  0  0
   -3.2759    3.1216    5.1141 S   0  0  0  1  0  0  0  0  0  0  0  0
    0.0021   -0.0041    0.0020 O   0  0  0  1  0  0  0  0  0  0  0  0
    1.1617    2.2101    0.0028 O   0  0  0  1  0  0  0  0  0  0  0  0
   -0.9002    1.8797   -1.3124 N   0  0  0  1  0  0  0  0  0  0  0  0
   -1.1366    3.3017   -1.5741 C   0  0  0  1  0  0  0  0  0  0  0  0
   -1.1436    3.5444   -3.0614 C   0  0  0  1  0  0  0  0  0  0  0  0
   -2.4877    3.7111   -0.9842 C   0  0  0  1  0  0  0  0  0  0  0  0
   -0.9297    1.8941    1.4396 C   0  0  0  1  0  0  0  0  0  0  0  0
   -0.5439    4.6769   -3.5797 C   0  0  0  1  0  0  0  0  0  0  0  0
   -1.7448    2.6317   -3.9078 C   0  0  0  1  0  0  0  0  0  0  0  0
   -1.8430    1.0191    1.9989 C   0  0  0  1  0  0  0  0  0  0  0  0
   -0.7266    3.1408    2.0031 C   0  0  0  1  0  0  0  0  0  0  0  0
   -0.5503    4.8995   -4.9440 C   0  0  0  1  0  0  0  0  0  0  0  0
   -1.7511    2.8543   -5.2721 C   0  0  0  1  0  0  0  0  0  0  0  0
   -2.5602    1.3900    3.1191 C   0  0  0  1  0  0  0  0  0  0  0  0
   -1.4395    3.5181    3.1238 C   0  0  0  1  0  0  0  0  0  0  0  0
   -2.3630    2.6440    3.6847 C   0  0  0  1  0  0  0  0  0  0  0  0
   -1.1561    3.9894   -5.7900 C   0  0  0  1  0  0  0  0  0  0  0  0
   -2.6670    4.7978    5.4459 C   0  0  0  1  0  0  0  0  0  0  0  0
   -0.3449    3.8924   -1.1132 H   0  0  0  1  0  0  0  0  0  0  0  0
   -1.2609    1.2094   -1.9136 H   0  0  0  1  0  0  0  0  0  0  0  0
   -2.6636    4.7690   -1.1789 H   0  0  0  1  0  0  0  0  0  0  0  0
   -3.2793    3.1203   -1.4450 H   0  0  0  1  0  0  0  0  0  0  0  0
   -2.4826    3.5355    0.0916 H   0  0  0  1  0  0  0  0  0  0  0  0
   -0.0706    5.3879   -2.9187 H   0  0  0  1  0  0  0  0  0  0  0  0
   -2.2091    1.7445   -3.5032 H   0  0  0  1  0  0  0  0  0  0  0  0
   -1.9958    0.0448    1.5589 H   0  0  0  1  0  0  0  0  0  0  0  0
   -0.0094    3.8198    1.5662 H   0  0  0  1  0  0  0  0  0  0  0  0
   -0.0824    5.7847   -5.3489 H   0  0  0  1  0  0  0  0  0  0  0  0
   -2.2205    2.1410   -5.9334 H   0  0  0  1  0  0  0  0  0  0  0  0
   -3.2738    0.7065    3.5550 H   0  0  0  1  0  0  0  0  0  0  0  0
   -1.2800    4.4915    3.5637 H   0  0  0  1  0  0  0  0  0  0  0  0
   -1.1614    4.1636   -6.8558 H   0  0  0  1  0  0  0  0  0  0  0  0
   -3.1711    5.2002    6.3246 H   0  0  0  1  0  0  0  0  0  0  0  0
   -1.5926    4.7650    5.6267 H   0  0  0  1  0  0  0  0  0  0  0  0
   -2.8714    5.4355    4.5859 H   0  0  0  1  0  0  0  0  0  0  0  0
  1  3  2  0  0  0  0
  1  4  2  0  0  0  0
  1  5  1  0  0  0  0
  1  9  1  0  0  0  0
  2 18  1  0  0  0  0
  2 20  1  0  0  0  0
  5  6  1  0  0  0  0
  5 22  1  0  0  0  0
  6  7  1  0  0  0  0
  6  8  1  0  0  0  0
  6 21  1  0  0  0  0
  7 10  4  0  0  0  0
  7 11  4  0  0  0  0
  8 23  1  0  0  0  0
  8 24  1  0  0  0  0
  8 25  1  0  0  0  0
  9 12  4  0  0  0  0
  9 13  4  0  0  0  0
 10 14  4  0  0  0  0
 10 26  1  0  0  0  0
 11 15  4  0  0  0  0
 11 27  1  0  0  0  0
 12 16  4  0  0  0  0
 12 28  1  0  0  0  0
 13 17  4  0  0  0  0
 13 29  1  0  0  0  0
 14 19  4  0  0  0  0
 14 30  1  0  0  0  0
 15 19  4  0  0  0  0
 15 31  1  0  0  0  0
 16 18  4  0  0  0  0
 16 32  1  0  0  0  0
 17 18  4  0  0  0  0
 17 33  1  0  0  0  0
 19 34  1  0  0  0  0
 20 35  1  0  0  0  0
 20 36  1  0  0  0  0
 20 37  1  0  0  0  0
M  END
> <Activity>
0.01

> <Mapped(file=2032.csv.activities,property=Cached(PUBCHEM_COMPOUND_CID))>
100

> <MatchIndices>
25 

> <PUBCHEM_ATOM_DEF_STEREO_COUNT>
0

> <PUBCHEM_ATOM_UDEF_STEREO_COUNT>
1

> <PUBCHEM_BONDANNOTATIONS>
10  14  8
11  15  8
12  16  8
13  17  8
14  19  8
15  19  8
16  18  8
17  18  8
6  8  3
7  10  8
7  11  8
9  12  8
9  13  8

> <PUBCHEM_BOND_DEF_STEREO_COUNT>
0

> <PUBCHEM_BOND_UDEF_STEREO_COUNT>
0

> <PUBCHEM_CACTVS_COMPLEXITY>
377

> <PUBCHEM_CACTVS_HBOND_ACCEPTOR>
4

> <PUBCHEM_CACTVS_HBOND_DONOR>
1

> <PUBCHEM_CACTVS_ROTATABLE_BOND>
5

> <PUBCHEM_CACTVS_SUBSKEYS>
AAADceByMABgAAAAAAAAAAAAAAAAAAAAAAAwYAAAAAAAAAABQAAAHAQQQAAADCjBWASyAYBAAAqAAiBCAHDCABAgCBAIiJgABIgIICKgkRGAIABgkAAIiAcQgIAOAAgAAAAAAAAAEAAAAAAAAAAAAAAAAA==

> <PUBCHEM_CACTVS_TAUTO_COUNT>
1

> <PUBCHEM_CACTVS_TPSA>
79.8

> <PUBCHEM_COMPONENT_COUNT>
1

> <PUBCHEM_COMPOUND_CANONICALIZED>
1

> <PUBCHEM_COMPOUND_CID>
2962951

> <PUBCHEM_COORDINATE_TYPE>
1
5
255

> <PUBCHEM_EXACT_MASS>
307.070071

> <PUBCHEM_HEAVY_ATOM_COUNT>
20

> <PUBCHEM_ISOTOPIC_ATOM_COUNT>
0

> <PUBCHEM_IUPAC_CAS_NAME>
4-(methylthio)-N-(1-phenylethyl)benzenesulfonamide

> <PUBCHEM_IUPAC_INCHI>
InChI=1S/C15H17NO2S2/c1-12(13-6-4-3-5-7-13)16-20(17,18)15-10-8-14(19-2)9-11-15/h3-12,16H,1-2H3

> <PUBCHEM_IUPAC_INCHIKEY>
LHBDFYMNDAITSX-UHFFFAOYSA-N

> <PUBCHEM_IUPAC_NAME>
4-methylsulfanyl-N-(1-phenylethyl)benzenesulfonamide

> <PUBCHEM_IUPAC_OPENEYE_NAME>
4-methylsulfanyl-N-(1-phenylethyl)benzenesulfonamide

> <PUBCHEM_IUPAC_SYSTEMATIC_NAME>
4-methylsulfanyl-N-(1-phenylethyl)benzenesulfonamide

> <PUBCHEM_IUPAC_TRADITIONAL_NAME>
4-(methylthio)-N-(1-phenylethyl)benzenesulfonamide

> <PUBCHEM_MOLECULAR_FORMULA>
C15H17NO2S2

> <PUBCHEM_MOLECULAR_WEIGHT>
307.43098

> <PUBCHEM_MONOISOTOPIC_WEIGHT>
307.070071

> <PUBCHEM_OPENEYE_CAN_SMILES>
CC(C1=CC=CC=C1)NS(=O)(=O)C2=CC=C(C=C2)SC

> <PUBCHEM_OPENEYE_ISO_SMILES>
CC(C1=CC=CC=C1)NS(=O)(=O)C2=CC=C(C=C2)SC

> <PUBCHEM_TOTAL_CHARGE>
0

> <PUBCHEM_XLOGP3_AA>
3.3

$$$$
Largest isolated from Written by BCL::WriteToMDL,225584
JMcorina  04211410293D 1   1.00000     0.00000 
CORINA 3.49 0026  01.06.2011
 34 36  0  0  0  0  0  0  0  0999 V2000
   -0.0172    1.4168    0.0098 S   0  0  0  1  0  0  0  0  0  0  0  0
    0.3934    2.6133    0.6571 O   0  0  0  1  0  0  0  0  0  0  0  0
   -0.7693    0.4007    0.6589 O   0  0  0  1  0  0  0  0  0  0  0  0
   -0.9002    1.8797   -1.3124 N   0  0  0  1  0  0  0  0  0  0  0  0
   -0.7915    3.2460   -1.8418 C   0  0  0  1  0  0  0  0  0  0  0  0
   -2.2109    3.7486   -2.1368 C   0  0  0  1  0  0  0  0  0  0  0  0
   -2.8290    2.8714   -3.2253 C   0  0  0  1  0  0  0  0  0  0  0  0
   -1.7577    0.9745   -1.9473 C   0  0  0  1  0  0  0  0  0  0  0  0
   -2.7015    1.4149   -2.8643 C   0  0  0  1  0  0  0  0  0  0  0  0
   -1.6586   -0.3786   -1.6437 C   0  0  0  1  0  0  0  0  0  0  0  0
   -3.5444    0.4984   -3.4698 C   0  0  0  1  0  0  0  0  0  0  0  0
    1.4502    0.6452   -0.5870 C   0  0  0  1  0  0  0  0  0  0  0  0
   -2.4975   -1.2876   -2.2570 C   0  0  0  1  0  0  0  0  0  0  0  0
   -3.4499   -0.8452   -3.1620 C   0  0  0  1  0  0  0  0  0  0  0  0
    2.5826    1.4023   -0.8220 C   0  0  0  1  0  0  0  0  0  0  0  0
    1.4706   -0.7180   -0.8149 C   0  0  0  1  0  0  0  0  0  0  0  0
    3.7338    0.7971   -1.2903 C   0  0  0  1  0  0  0  0  0  0  0  0
    2.6218   -1.3233   -1.2832 C   0  0  0  1  0  0  0  0  0  0  0  0
    3.7526   -0.5654   -1.5232 C   0  0  0  1  0  0  0  0  0  0  0  0
   -0.3175    3.8917   -1.1026 H   0  0  0  1  0  0  0  0  0  0  0  0
   -0.2036    3.2406   -2.7596 H   0  0  0  1  0  0  0  0  0  0  0  0
   -2.8153    3.6878   -1.2318 H   0  0  0  1  0  0  0  0  0  0  0  0
   -2.1682    4.7820   -2.4809 H   0  0  0  1  0  0  0  0  0  0  0  0
   -3.8835    3.1242   -3.3362 H   0  0  0  1  0  0  0  0  0  0  0  0
   -2.3166    3.0546   -4.1698 H   0  0  0  1  0  0  0  0  0  0  0  0
   -0.9248   -0.7189   -0.9280 H   0  0  0  1  0  0  0  0  0  0  0  0
   -4.2795    0.8354   -4.1857 H   0  0  0  1  0  0  0  0  0  0  0  0
   -2.4203   -2.3389   -2.0217 H   0  0  0  1  0  0  0  0  0  0  0  0
   -4.1107   -1.5546   -3.6379 H   0  0  0  1  0  0  0  0  0  0  0  0
    2.5679    2.4668   -0.6400 H   0  0  0  1  0  0  0  0  0  0  0  0
    0.5873   -1.3103   -0.6268 H   0  0  0  1  0  0  0  0  0  0  0  0
    4.6184    1.3887   -1.4745 H   0  0  0  1  0  0  0  0  0  0  0  0
    2.6379   -2.3885   -1.4609 H   0  0  0  1  0  0  0  0  0  0  0  0
    4.6519   -1.0383   -1.8894 H   0  0  0  1  0  0  0  0  0  0  0  0
  1  2  2  0  0  0  0
  1  3  2  0  0  0  0
  1  4  1  0  0  0  0
  1 12  1  0  0  0  0
  4  5  1  0  0  0  0
  4  8  1  0  0  0  0
  5  6  1  0  0  0  0
  5 20  1  0  0  0  0
  5 21  1  0  0  0  0
  6  7  1  0  0  0  0
  6 22  1  0  0  0  0
  6 23  1  0  0  0  0
  7  9  1  0  0  0  0
  7 24  1  0  0  0  0
  7 25  1  0  0  0  0
  8  9  4  0  0  0  0
  8 10  4  0  0  0  0
  9 11  4  0  0  0  0
 10 13  4  0  0  0  0
 10 26  1  0  0  0  0
 11 14  4  0  0  0  0
 11 27  1  0  0  0  0
 12 15  4  0  0  0  0
 12 16  4  0  0  0  0
 13 14  4  0  0  0  0
 13 28  1  0  0  0  0
 14 29  1  0  0  0  0
 15 17  4  0  0  0  0
 15 30  1  0  0  0  0
 16 18  4  0  0  0  0
 16 31  1  0  0  0  0
 17 19  4  0  0  0  0
 17 32  1  0  0  0  0
 18 19  4  0  0  0  0
 18 33  1  0  0  0  0
 19 34  1  0  0  0  0
M  END
> <Activity>
0.01

> <Mapped(file=2032.csv.activities,property=Cached(PUBCHEM_COMPOUND_CID))>
100

> <MatchIndices>
147 

> <PUBCHEM_ATOM_DEF_STEREO_COUNT>
0

> <PUBCHEM_ATOM_UDEF_STEREO_COUNT>
0

> <PUBCHEM_BONDANNOTATIONS>
10  13  8
11  14  8
12  15  8
12  16  8
13  14  8
15  17  8
16  18  8
17  19  8
18  19  8
8  10  8
8  9  8
9  11  8

> <PUBCHEM_BOND_DEF_STEREO_COUNT>
0

> <PUBCHEM_BOND_UDEF_STEREO_COUNT>
0

> <PUBCHEM_CACTVS_COMPLEXITY>
395

> <PUBCHEM_CACTVS_HBOND_ACCEPTOR>
3

> <PUBCHEM_CACTVS_HBOND_DONOR>
0

> <PUBCHEM_CACTVS_ROTATABLE_BOND>
2

> <PUBCHEM_CACTVS_SUBSKEYS>
AAADccByMABAAAAAAAAAAAAAAAAAAAAAAAA8YIAAAAAAAACxQAAAHAQAQAAADAjBWAQwwYIAAAKAAiRCQHDCABAhAgAIiBgIZIgIICLAkZGEIAhggADIyAcQgIAOAAAAAAACAAAAAAAAAAQAAAAAAAAAAA==

> <PUBCHEM_CACTVS_TAUTO_COUNT>
1

> <PUBCHEM_CACTVS_TPSA>
45.8

> <PUBCHEM_COMPONENT_COUNT>
1

> <PUBCHEM_COMPOUND_CANONICALIZED>
1

> <PUBCHEM_COMPOUND_CID>
225584

> <PUBCHEM_COORDINATE_TYPE>
1
5
255

> <PUBCHEM_EXACT_MASS>
273.08235

> <PUBCHEM_HEAVY_ATOM_COUNT>
19

> <PUBCHEM_ISOTOPIC_ATOM_COUNT>
0

> <PUBCHEM_IUPAC_CAS_NAME>
1-(benzenesulfonyl)-3,4-dihydro-2H-quinoline

> <PUBCHEM_IUPAC_INCHI>
InChI=1S/C15H15NO2S/c17-19(18,14-9-2-1-3-10-14)16-12-6-8-13-7-4-5-11-15(13)16/h1-5,7,9-11H,6,8,12H2

> <PUBCHEM_IUPAC_INCHIKEY>
GPSUPBMZQAGMSS-UHFFFAOYSA-N

> <PUBCHEM_IUPAC_NAME>
1-(benzenesulfonyl)-3,4-dihydro-2H-quinoline

> <PUBCHEM_IUPAC_OPENEYE_NAME>
1-(benzenesulfonyl)-3,4-dihydro-2H-quinoline

> <PUBCHEM_IUPAC_SYSTEMATIC_NAME>
1-(phenylsulfonyl)-3,4-dihydro-2H-quinoline

> <PUBCHEM_IUPAC_TRADITIONAL_NAME>
1-besyl-3,4-dihydro-2H-quinoline

> <PUBCHEM_MOLECULAR_FORMULA>
C15H15NO2S

> <PUBCHEM_MOLECULAR_WEIGHT>
273.3501

> <PUBCHEM_MONOISOTOPIC_WEIGHT>
273.08235

> <PUBCHEM_OPENEYE_CAN_SMILES>
C1CC2=CC=CC=C2N(C1)S(=O)(=O)C3=CC=CC=C3

> <PUBCHEM_OPENEYE_ISO_SMILES>
C1CC2=CC=CC=C2N(C1)S(=O)(=O)C3=CC=CC=C3

> <PUBCHEM_TOTAL_CHARGE>
0

> <PUBCHEM_XLOGP3_AA>
3

$$$$
Largest isolated from Written by BCL::WriteToMDL,70865
JMcorina  04211410293D 1   1.00000     0.00000 
CORINA 3.49 0026  01.06.2011
 42 44  0  0  0  0  0  0  0  0999 V2000
   -0.0178    1.4642    0.0101 N   0  0  0  1  0  0  0  0  0  0  0  0
    2.7910   -0.4010    2.5366 N   0  0  0  1  0  0  0  0  0  0  0  0
    2.1331    0.0352    1.3025 C   0  0  0  1  0  0  0  0  0  0  0  0
    0.7039   -0.5130    1.2631 C   0  0  0  1  0  0  0  0  0  0  0  0
    2.0858    1.5651    1.2611 C   0  0  0  1  0  0  0  0  0  0  0  0
    0.0021   -0.0041    0.0020 C   0  0  0  1  0  0  0  0  0  0  0  0
    1.3439    2.0138    0.0000 C   0  0  0  1  0  0  0  0  0  0  0  0
   -0.8045    1.9863   -1.1153 C   0  0  0  1  0  0  0  0  0  0  0  0
   -1.0092    3.4690   -0.9402 C   0  0  0  1  0  0  0  0  0  0  0  0
    4.1835   -0.4970    2.5893 C   0  0  0  1  0  0  0  0  0  0  0  0
   -0.0935    4.3602   -1.4677 C   0  0  0  1  0  0  0  0  0  0  0  0
   -2.1156    3.9381   -0.2570 C   0  0  0  1  0  0  0  0  0  0  0  0
    4.8089   -0.9105    3.7587 C   0  0  0  1  0  0  0  0  0  0  0  0
    4.9456   -0.1846    1.4708 C   0  0  0  1  0  0  0  0  0  0  0  0
   -0.2812    5.7203   -1.3070 C   0  0  0  1  0  0  0  0  0  0  0  0
   -2.3033    5.2982   -0.0963 C   0  0  0  1  0  0  0  0  0  0  0  0
    6.1859   -1.0043    3.8074 C   0  0  0  1  0  0  0  0  0  0  0  0
    6.3222   -0.2805    1.5264 C   0  0  0  1  0  0  0  0  0  0  0  0
   -1.3848    6.1892   -0.6192 C   0  0  0  1  0  0  0  0  0  0  0  0
    6.9420   -0.6870    2.6939 C   0  0  0  1  0  0  0  0  0  0  0  0
    2.6896   -0.3363    0.4420 H   0  0  0  1  0  0  0  0  0  0  0  0
    0.7324   -1.6025    1.2493 H   0  0  0  1  0  0  0  0  0  0  0  0
    0.1597   -0.1738    2.1445 H   0  0  0  1  0  0  0  0  0  0  0  0
    1.5633    1.9370    2.1425 H   0  0  0  1  0  0  0  0  0  0  0  0
    3.1015    1.9603    1.2458 H   0  0  0  1  0  0  0  0  0  0  0  0
   -1.0204   -0.3810   -0.0218 H   0  0  0  1  0  0  0  0  0  0  0  0
    0.5390   -0.3552   -0.8792 H   0  0  0  1  0  0  0  0  0  0  0  0
    1.8745    1.6533   -0.8812 H   0  0  0  1  0  0  0  0  0  0  0  0
    1.2960    3.1025   -0.0252 H   0  0  0  1  0  0  0  0  0  0  0  0
   -0.2719    1.8007   -2.0480 H   0  0  0  1  0  0  0  0  0  0  0  0
   -1.7729    1.4868   -1.1444 H   0  0  0  1  0  0  0  0  0  0  0  0
    2.2596   -0.6233    3.3170 H   0  0  0  1  0  0  0  0  0  0  0  0
    0.7687    3.9938   -2.0050 H   0  0  0  1  0  0  0  0  0  0  0  0
   -2.8335    3.2420    0.1510 H   0  0  0  1  0  0  0  0  0  0  0  0
    4.2191   -1.1581    4.6289 H   0  0  0  1  0  0  0  0  0  0  0  0
    4.4622    0.1326    0.5586 H   0  0  0  1  0  0  0  0  0  0  0  0
    0.4346    6.4165   -1.7184 H   0  0  0  1  0  0  0  0  0  0  0  0
   -3.1679    5.6646    0.4371 H   0  0  0  1  0  0  0  0  0  0  0  0
    6.6729   -1.3254    4.7164 H   0  0  0  1  0  0  0  0  0  0  0  0
    6.9154   -0.0381    0.6570 H   0  0  0  1  0  0  0  0  0  0  0  0
   -1.5313    7.2518   -0.4934 H   0  0  0  1  0  0  0  0  0  0  0  0
    8.0186   -0.7612    2.7347 H   0  0  0  1  0  0  0  0  0  0  0  0
  1  6  1  0  0  0  0
  1  7  1  0  0  0  0
  1  8  1  0  0  0  0
  2  3  1  0  0  0  0
  2 10  1  0  0  0  0
  2 32  1  0  0  0  0
  3  4  1  0  0  0  0
  3  5  1  0  0  0  0
  3 21  1  0  0  0  0
  4  6  1  0  0  0  0
  4 22  1  0  0  0  0
  4 23  1  0  0  0  0
  5  7  1  0  0  0  0
  5 24  1  0  0  0  0
  5 25  1  0  0  0  0
  6 26  1  0  0  0  0
  6 27  1  0  0  0  0
  7 28  1  0  0  0  0
  7 29  1  0  0  0  0
  8  9  1  0  0  0  0
  8 30  1  0  0  0  0
  8 31  1  0  0  0  0
  9 11  4  0  0  0  0
  9 12  4  0  0  0  0
 10 13  4  0  0  0  0
 10 14  4  0  0  0  0
 11 15  4  0  0  0  0
 11 33  1  0  0  0  0
 12 16  4  0  0  0  0
 12 34  1  0  0  0  0
 13 17  4  0  0  0  0
 13 35  1  0  0  0  0
 14 18  4  0  0  0  0
 14 36  1  0  0  0  0
 15 19  4  0  0  0  0
 15 37  1  0  0  0  0
 16 19  4  0  0  0  0
 16 38  1  0  0  0  0
 17 20  4  0  0  0  0
 17 39  1  0  0  0  0
 18 20  4  0  0  0  0
 18 40  1  0  0  0  0
 19 41  1  0  0  0  0
 20 42  1  0  0  0  0
M  END
> <Activity>
0.01

> <Mapped(file=2032.csv.activities,property=Cached(PUBCHEM_COMPOUND_CID))>
100

> <MatchIndices>
44 

> <PUBCHEM_ATOM_DEF_STEREO_COUNT>
0

> <PUBCHEM_ATOM_UDEF_STEREO_COUNT>
0

> <PUBCHEM_BONDANNOTATIONS>
10  13  8
10  14  8
11  15  8
12  16  8
13  17  8
14  18  8
15  19  8
16  19  8
17  20  8
18  20  8
9  11  8
9  12  8

> <PUBCHEM_BOND_DEF_STEREO_COUNT>
0

> <PUBCHEM_BOND_UDEF_STEREO_COUNT>
0

> <PUBCHEM_CACTVS_COMPLEXITY>
259

> <PUBCHEM_CACTVS_HBOND_ACCEPTOR>
2

> <PUBCHEM_CACTVS_HBOND_DONOR>
1

> <PUBCHEM_CACTVS_ROTATABLE_BOND>
4

> <PUBCHEM_CACTVS_SUBSKEYS>
AAADceB7AAAAAAAAAAAAAAAAAAAAAAAAAAA8YIAAAAAAAAABQAAAHAAQAAAADCjBGAQwwIPAAACAAiRCQACCAAAhAgAIiIAIZIgIICLA0ZGEIAhgkADIyAcQgAAOAAAAAAAAAAAAAAAAAAAAAAAAAAAAAA==

> <PUBCHEM_CACTVS_TAUTO_COUNT>
1

> <PUBCHEM_CACTVS_TPSA>
15.3

> <PUBCHEM_COMPONENT_COUNT>
1

> <PUBCHEM_COMPOUND_CANONICALIZED>
1

> <PUBCHEM_COMPOUND_CID>
70865

> <PUBCHEM_COORDINATE_TYPE>
1
5
255

> <PUBCHEM_EXACT_MASS>
266.178299

> <PUBCHEM_HEAVY_ATOM_COUNT>
20

> <PUBCHEM_ISOTOPIC_ATOM_COUNT>
0

> <PUBCHEM_IUPAC_CAS_NAME>
N-phenyl-1-(phenylmethyl)-4-piperidinamine

> <PUBCHEM_IUPAC_INCHI>
InChI=1S/C18H22N2/c1-3-7-16(8-4-1)15-20-13-11-18(12-14-20)19-17-9-5-2-6-10-17/h1-10,18-19H,11-15H2

> <PUBCHEM_IUPAC_INCHIKEY>
FSXGJIFBTBJMHV-UHFFFAOYSA-N

> <PUBCHEM_IUPAC_NAME>
1-benzyl-N-phenylpiperidin-4-amine

> <PUBCHEM_IUPAC_OPENEYE_NAME>
1-benzyl-N-phenyl-piperidin-4-amine

> <PUBCHEM_IUPAC_SYSTEMATIC_NAME>
N-phenyl-1-(phenylmethyl)piperidin-4-amine

> <PUBCHEM_IUPAC_TRADITIONAL_NAME>
(1-benzyl-4-piperidyl)-phenyl-amine

> <PUBCHEM_MOLECULAR_FORMULA>
C18H22N2

> <PUBCHEM_MOLECULAR_WEIGHT>
266.38068

> <PUBCHEM_MONOISOTOPIC_WEIGHT>
266.178299

> <PUBCHEM_OPENEYE_CAN_SMILES>
C1CN(CCC1NC2=CC=CC=C2)CC3=CC=CC=C3

> <PUBCHEM_OPENEYE_ISO_SMILES>
C1CN(CCC1NC2=CC=CC=C2)CC3=CC=CC=C3

> <PUBCHEM_TOTAL_CHARGE>
0

> <PUBCHEM_XLOGP3_AA>
4

$$$$
Largest isolated from Written by BCL::WriteToMDL,3627083
JMcorina  04211410293D 1   1.00000     0.00000 
CORINA 3.49 0026  01.06.2011
 46 47  0  0  0  0  0  0  0  0999 V2000
   -0.0164    1.3548    0.0095 O   0  0  0  1  0  0  0  0  0  0  0  0
    2.9781    5.7514    6.0555 O   0  0  0  1  0  0  0  0  0  0  0  0
    1.3603    0.6051    2.7478 N   0  0  0  1  0  0  0  0  0  0  0  0
    2.8437    2.6476    5.5041 N   0  0  0  1  0  0  0  0  0  0  0  0
    2.8032    1.9129    4.2327 C   0  0  0  1  0  0  0  0  0  0  0  0
    1.4008    1.3397    4.0193 C   0  0  0  1  0  0  0  0  0  0  0  0
    4.1782    3.2133    5.7430 C   0  0  0  1  0  0  0  0  0  0  0  0
    0.0258    0.0393    2.5090 C   0  0  0  1  0  0  0  0  0  0  0  0
    0.0230   -0.7052    1.1987 C   0  0  0  1  0  0  0  0  0  0  0  0
    4.1810    3.9578    7.0532 C   0  0  0  1  0  0  0  0  0  0  0  0
    0.0355   -2.0867    1.1885 C   0  0  0  1  0  0  0  0  0  0  0  0
    4.7923    3.4042    8.1617 C   0  0  0  1  0  0  0  0  0  0  0  0
    0.0021   -0.0041    0.0020 C   0  0  0  1  0  0  0  0  0  0  0  0
    3.5748    5.2020    7.1459 C   0  0  0  1  0  0  0  0  0  0  0  0
    0.0329   -2.7703   -0.0131 C   0  0  0  1  0  0  0  0  0  0  0  0
    4.7948    4.0864    9.3641 C   0  0  0  1  0  0  0  0  0  0  0  0
   -0.0004   -0.6925   -1.2027 C   0  0  0  1  0  0  0  0  0  0  0  0
    3.5791    5.8849    8.3538 C   0  0  0  1  0  0  0  0  0  0  0  0
    0.0179   -2.0736   -1.2076 C   0  0  0  1  0  0  0  0  0  0  0  0
    4.1858    5.3242    9.4607 C   0  0  0  1  0  0  0  0  0  0  0  0
    5.4619    3.4800   10.5717 C   0  0  0  1  0  0  0  0  0  0  0  0
    0.0471   -4.2772   -0.0213 C   0  0  0  1  0  0  0  0  0  0  0  0
    0.6760    2.1534    3.9920 H   0  0  0  1  0  0  0  0  0  0  0  0
    1.1565    0.6628    4.8380 H   0  0  0  1  0  0  0  0  0  0  0  0
    3.0475    2.5898    3.4140 H   0  0  0  1  0  0  0  0  0  0  0  0
    3.5280    1.0992    4.2599 H   0  0  0  1  0  0  0  0  0  0  0  0
   -0.2280   -0.6466    3.3172 H   0  0  0  1  0  0  0  0  0  0  0  0
   -0.7085    0.8440    2.4712 H   0  0  0  1  0  0  0  0  0  0  0  0
    4.9125    2.4086    5.7807 H   0  0  0  1  0  0  0  0  0  0  0  0
    4.4320    3.8992    4.9348 H   0  0  0  1  0  0  0  0  0  0  0  0
    1.6458    1.1946    1.9803 H   0  0  0  1  0  0  0  0  0  0  0  0
    2.1364    3.3667    5.5289 H   0  0  0  1  0  0  0  0  0  0  0  0
    0.0472   -2.6331    2.1200 H   0  0  0  1  0  0  0  0  0  0  0  0
    5.2683    2.4375    8.0889 H   0  0  0  1  0  0  0  0  0  0  0  0
   -0.0170   -0.1489   -2.1358 H   0  0  0  1  0  0  0  0  0  0  0  0
    3.1081    6.8540    8.4284 H   0  0  0  1  0  0  0  0  0  0  0  0
    0.0159   -2.6099   -2.1450 H   0  0  0  1  0  0  0  0  0  0  0  0
    4.1888    5.8551   10.4012 H   0  0  0  1  0  0  0  0  0  0  0  0
    6.5068    3.7887   10.6029 H   0  0  0  1  0  0  0  0  0  0  0  0
    4.9556    3.8195   11.4753 H   0  0  0  1  0  0  0  0  0  0  0  0
   -0.9771   -4.6502   -0.0156 H   0  0  0  1  0  0  0  0  0  0  0  0
    0.5576   -4.6309   -0.9171 H   0  0  0  1  0  0  0  0  0  0  0  0
    0.5710   -4.6405    0.8628 H   0  0  0  1  0  0  0  0  0  0  0  0
    5.4058    2.3932   10.5104 H   0  0  0  1  0  0  0  0  0  0  0  0
    0.8616    1.7601    0.0033 H   0  0  0  1  0  0  0  0  0  0  0  0
    2.0433    5.5225    5.9616 H   0  0  0  1  0  0  0  0  0  0  0  0
  1 13  1  0  0  0  0
  1 45  1  0  0  0  0
  2 14  1  0  0  0  0
  2 46  1  0  0  0  0
  3  6  1  0  0  0  0
  3  8  1  0  0  0  0
  3 31  1  0  0  0  0
  4  5  1  0  0  0  0
  4  7  1  0  0  0  0
  4 32  1  0  0  0  0
  5  6  1  0  0  0  0
  5 25  1  0  0  0  0
  5 26  1  0  0  0  0
  6 23  1  0  0  0  0
  6 24  1  0  0  0  0
  7 10  1  0  0  0  0
  7 29  1  0  0  0  0
  7 30  1  0  0  0  0
  8  9  1  0  0  0  0
  8 27  1  0  0  0  0
  8 28  1  0  0  0  0
  9 11  4  0  0  0  0
  9 13  4  0  0  0  0
 10 12  4  0  0  0  0
 10 14  4  0  0  0  0
 11 15  4  0  0  0  0
 11 33  1  0  0  0  0
 12 16  4  0  0  0  0
 12 34  1  0  0  0  0
 13 17  4  0  0  0  0
 14 18  4  0  0  0  0
 15 19  4  0  0  0  0
 15 22  1  0  0  0  0
 16 20  4  0  0  0  0
 16 21  1  0  0  0  0
 17 19  4  0  0  0  0
 17 35  1  0  0  0  0
 18 20  4  0  0  0  0
 18 36  1  0  0  0  0
 19 37  1  0  0  0  0
 20 38  1  0  0  0  0
 21 39  1  0  0  0  0
 21 40  1  0  0  0  0
 21 44  1  0  0  0  0
 22 41  1  0  0  0  0
 22 42  1  0  0  0  0
 22 43  1  0  0  0  0
M  END
> <Activity>
0.01

> <Mapped(file=2032.csv.activities,property=Cached(PUBCHEM_COMPOUND_CID))>
100

> <MatchIndices>
54 

> <PUBCHEM_ATOM_DEF_STEREO_COUNT>
0

> <PUBCHEM_ATOM_UDEF_STEREO_COUNT>
0

> <PUBCHEM_BONDANNOTATIONS>
10  12  8
10  14  8
11  15  8
12  16  8
13  17  8
14  18  8
15  19  8
16  20  8
17  19  8
18  20  8
9  11  8
9  13  8

> <PUBCHEM_BOND_DEF_STEREO_COUNT>
0

> <PUBCHEM_BOND_UDEF_STEREO_COUNT>
0

> <PUBCHEM_CACTVS_COMPLEXITY>
284

> <PUBCHEM_CACTVS_HBOND_ACCEPTOR>
4

> <PUBCHEM_CACTVS_HBOND_DONOR>
4

> <PUBCHEM_CACTVS_ROTATABLE_BOND>
7

> <PUBCHEM_CACTVS_SUBSKEYS>
AAADceB7MAAAAAAAAAAAAAAAAAAAAAAAAAAwYAAAAAAAAAABQAAAHgAQCAAADATBmAQyBoLAAgCAAiBCAACCAAAgIAAIiIAODIgIZiKCkROUcAhm0BGImAeQwGAOIAACAAAIAABAAAQAABAAAAAAAAAAAA==

> <PUBCHEM_CACTVS_TAUTO_COUNT>
5

> <PUBCHEM_CACTVS_TPSA>
64.5

> <PUBCHEM_COMPONENT_COUNT>
1

> <PUBCHEM_COMPOUND_CANONICALIZED>
1

> <PUBCHEM_COMPOUND_CID>
3627083

> <PUBCHEM_COORDINATE_TYPE>
1
5
255

> <PUBCHEM_EXACT_MASS>
300.183778

> <PUBCHEM_HEAVY_ATOM_COUNT>
22

> <PUBCHEM_ISOTOPIC_ATOM_COUNT>
0

> <PUBCHEM_IUPAC_CAS_NAME>
2-[[2-[(2-hydroxy-5-methylphenyl)methylamino]ethylamino]methyl]-4-methylphenol

> <PUBCHEM_IUPAC_INCHI>
InChI=1S/C18H24N2O2/c1-13-3-5-17(21)15(9-13)11-19-7-8-20-12-16-10-14(2)4-6-18(16)22/h3-6,9-10,19-22H,7-8,11-12H2,1-2H3

> <PUBCHEM_IUPAC_INCHIKEY>
FPLZZQVRIKYDDZ-UHFFFAOYSA-N

> <PUBCHEM_IUPAC_NAME>
2-[[2-[(2-hydroxy-5-methylphenyl)methylamino]ethylamino]methyl]-4-methylphenol

> <PUBCHEM_IUPAC_OPENEYE_NAME>
2-[[2-[(2-hydroxy-5-methyl-phenyl)methylamino]ethylamino]methyl]-4-methyl-phenol

> <PUBCHEM_IUPAC_SYSTEMATIC_NAME>
4-methyl-2-[[2-[(5-methyl-2-oxidanyl-phenyl)methylamino]ethylamino]methyl]phenol

> <PUBCHEM_IUPAC_TRADITIONAL_NAME>
2-[[2-[(2-hydroxy-5-methyl-benzyl)amino]ethylamino]methyl]-4-methyl-phenol

> <PUBCHEM_MOLECULAR_FORMULA>
C18H24N2O2

> <PUBCHEM_MOLECULAR_WEIGHT>
300.39536

> <PUBCHEM_MONOISOTOPIC_WEIGHT>
300.183778

> <PUBCHEM_OPENEYE_CAN_SMILES>
CC1=CC(=C(C=C1)O)CNCCNCC2=C(C=CC(=C2)C)O

> <PUBCHEM_OPENEYE_ISO_SMILES>
CC1=CC(=C(C=C1)O)CNCCNCC2=C(C=CC(=C2)C)O

> <PUBCHEM_TOTAL_CHARGE>
0

> <PUBCHEM_XLOGP3_AA>
3.5

$$$$
Largest isolated from Written by BCL::WriteToMDL,17123422
JMcorina  04211410293D 1   1.00000     0.00000 
CORINA 3.49 0026  01.06.2011
 41 42  0  0  0  0  0  0  0  0999 V2000
   -8.6471   -6.0179    0.0523 Br  0  0  0  1  0  0  0  0  0  0  0  0
   -0.0225    1.8057    0.0120 S   0  0  0  1  0  0  0  0  0  0  0  0
   -2.7907   -2.5720    0.0149 N   0  0  0  1  0  0  0  0  0  0  0  0
    2.1278    3.3928   -0.0000 N   0  0  0  1  0  0  0  0  0  0  0  0
    2.5604    1.1199   -0.0159 N   0  0  0  1  0  0  0  0  0  0  0  0
   -1.4126   -2.0635    0.0045 C   0  0  0  1  0  0  0  0  0  0  0  0
   -1.4333   -0.5336    0.0129 C   0  0  0  1  0  0  0  0  0  0  0  0
   -2.8100   -4.0408    0.0072 C   0  0  0  1  0  0  0  0  0  0  0  0
    0.0021   -0.0041    0.0020 C   0  0  0  1  0  0  0  0  0  0  0  0
   -4.2372   -4.5245    0.0182 C   0  0  0  1  0  0  0  0  0  0  0  0
   -4.9030   -4.7399   -1.1740 C   0  0  0  1  0  0  0  0  0  0  0  0
   -4.8783   -4.7581    1.2205 C   0  0  0  1  0  0  0  0  0  0  0  0
    1.7084    2.1353   -0.0028 C   0  0  0  1  0  0  0  0  0  0  0  0
   -6.2122   -5.1831   -1.1643 C   0  0  0  1  0  0  0  0  0  0  0  0
   -6.1873   -5.2018    1.2311 C   0  0  0  1  0  0  0  0  0  0  0  0
   -6.8560   -5.4116    0.0385 C   0  0  0  1  0  0  0  0  0  0  0  0
    3.4200    3.6743   -0.0104 C   0  0  0  1  0  0  0  0  0  0  0  0
    3.8657    1.3329   -0.0268 C   0  0  0  1  0  0  0  0  0  0  0  0
    4.3384    2.6360   -0.0243 C   0  0  0  1  0  0  0  0  0  0  0  0
    3.8884    5.1067   -0.0077 C   0  0  0  1  0  0  0  0  0  0  0  0
    4.8275    0.1729   -0.0422 C   0  0  0  1  0  0  0  0  0  0  0  0
   -0.8854   -2.4246    0.8875 H   0  0  0  1  0  0  0  0  0  0  0  0
   -0.9024   -2.4150   -0.8923 H   0  0  0  1  0  0  0  0  0  0  0  0
   -1.9605   -0.1726   -0.8702 H   0  0  0  1  0  0  0  0  0  0  0  0
   -1.9435   -0.1821    0.9097 H   0  0  0  1  0  0  0  0  0  0  0  0
   -2.3095   -4.4060   -0.8896 H   0  0  0  1  0  0  0  0  0  0  0  0
   -2.2925   -4.4156    0.8903 H   0  0  0  1  0  0  0  0  0  0  0  0
   -3.3046   -2.2077    0.8032 H   0  0  0  1  0  0  0  0  0  0  0  0
    0.5123   -0.3556   -0.8948 H   0  0  0  1  0  0  0  0  0  0  0  0
    0.5293   -0.3651    0.8851 H   0  0  0  1  0  0  0  0  0  0  0  0
   -4.4003   -4.5615   -2.1130 H   0  0  0  1  0  0  0  0  0  0  0  0
   -4.3562   -4.5943    2.1516 H   0  0  0  1  0  0  0  0  0  0  0  0
   -6.7325   -5.3506   -2.0958 H   0  0  0  1  0  0  0  0  0  0  0  0
   -6.6883   -5.3840    2.1704 H   0  0  0  1  0  0  0  0  0  0  0  0
    5.3993    2.8380   -0.0333 H   0  0  0  1  0  0  0  0  0  0  0  0
    4.0107    5.4470    1.0206 H   0  0  0  1  0  0  0  0  0  0  0  0
    4.8425    5.1779   -0.5299 H   0  0  0  1  0  0  0  0  0  0  0  0
    3.1508    5.7311   -0.5118 H   0  0  0  1  0  0  0  0  0  0  0  0
    5.0499   -0.1010   -1.0735 H   0  0  0  1  0  0  0  0  0  0  0  0
    5.7492    0.4584    0.4647 H   0  0  0  1  0  0  0  0  0  0  0  0
    4.3791   -0.6778    0.4710 H   0  0  0  1  0  0  0  0  0  0  0  0
  1 16  1  0  0  0  0
  2  9  1  0  0  0  0
  2 13  1  0  0  0  0
  3  6  1  0  0  0  0
  3  8  1  0  0  0  0
  3 28  1  0  0  0  0
  4 13  4  0  0  0  0
  4 17  4  0  0  0  0
  5 13  4  0  0  0  0
  5 18  4  0  0  0  0
  6  7  1  0  0  0  0
  6 22  1  0  0  0  0
  6 23  1  0  0  0  0
  7  9  1  0  0  0  0
  7 24  1  0  0  0  0
  7 25  1  0  0  0  0
  8 10  1  0  0  0  0
  8 26  1  0  0  0  0
  8 27  1  0  0  0  0
  9 29  1  0  0  0  0
  9 30  1  0  0  0  0
 10 11  4  0  0  0  0
 10 12  4  0  0  0  0
 11 14  4  0  0  0  0
 11 31  1  0  0  0  0
 12 15  4  0  0  0  0
 12 32  1  0  0  0  0
 14 16  4  0  0  0  0
 14 33  1  0  0  0  0
 15 16  4  0  0  0  0
 15 34  1  0  0  0  0
 17 19  4  0  0  0  0
 17 20  1  0  0  0  0
 18 19  4  0  0  0  0
 18 21  1  0  0  0  0
 19 35  1  0  0  0  0
 20 36  1  0  0  0  0
 20 37  1  0  0  0  0
 20 38  1  0  0  0  0
 21 39  1  0  0  0  0
 21 40  1  0  0  0  0
 21 41  1  0  0  0  0
M  END
> <Activity>
0.01

> <Mapped(file=2032.csv.activities,property=Cached(PUBCHEM_COMPOUND_CID))>
100

> <MatchIndices>
69 

> <PUBCHEM_ATOM_DEF_STEREO_COUNT>
0

> <PUBCHEM_ATOM_UDEF_STEREO_COUNT>
0

> <PUBCHEM_BONDANNOTATIONS>
11  12  8
11  13  8
12  15  8
13  16  8
15  17  8
16  17  8
18  20  8
19  20  8
5  14  8
5  18  8
6  14  8
6  19  8

> <PUBCHEM_BOND_DEF_STEREO_COUNT>
0

> <PUBCHEM_BOND_UDEF_STEREO_COUNT>
0

> <PUBCHEM_CACTVS_COMPLEXITY>
275

> <PUBCHEM_CACTVS_HBOND_ACCEPTOR>
2

> <PUBCHEM_CACTVS_HBOND_DONOR>
2

> <PUBCHEM_CACTVS_ROTATABLE_BOND>
7

> <PUBCHEM_CACTVS_SUBSKEYS>
AAADceB7AABEEAAAAAAAAAAAAAAAAAAAAAA8QAAAAAAAAAABwAAAHARQAAABrAjFXgSzkJbIEAigAyRiZACC0ClhArQJmKA4ZLiIKCLg2dGEJAhokALIyjcQgAAOAgAAAAAAAAAEAAAAAAAAAAAAAAAAAA==

> <PUBCHEM_CACTVS_TAUTO_COUNT>
1

> <PUBCHEM_CACTVS_TPSA>
63.1

> <PUBCHEM_COMPONENT_COUNT>
2

> <PUBCHEM_COMPOUND_CANONICALIZED>
1

> <PUBCHEM_COMPOUND_CID>
17123422

> <PUBCHEM_COORDINATE_TYPE>
1
5
255

> <PUBCHEM_EXACT_MASS>
401.032808

> <PUBCHEM_HEAVY_ATOM_COUNT>
22

> <PUBCHEM_ISOTOPIC_ATOM_COUNT>
0

> <PUBCHEM_IUPAC_CAS_NAME>
N-[(4-bromophenyl)methyl]-3-[(4,6-dimethyl-2-pyrimidinyl)thio]-1-propanamine hydrochloride

> <PUBCHEM_IUPAC_INCHI>
InChI=1S/C16H20BrN3S.ClH/c1-12-10-13(2)20-16(19-12)21-9-3-8-18-11-14-4-6-15(17)7-5-14;/h4-7,10,18H,3,8-9,11H2,1-2H3;1H

> <PUBCHEM_IUPAC_INCHIKEY>
QKEFFLMPZIFZMS-UHFFFAOYSA-N

> <PUBCHEM_IUPAC_NAME>
N-[(4-bromophenyl)methyl]-3-(4,6-dimethylpyrimidin-2-yl)sulfanylpropan-1-amine hydrochloride

> <PUBCHEM_IUPAC_OPENEYE_NAME>
N-[(4-bromophenyl)methyl]-3-(4,6-dimethylpyrimidin-2-yl)sulfanyl-propan-1-amine hydrochloride

> <PUBCHEM_IUPAC_SYSTEMATIC_NAME>
N-[(4-bromophenyl)methyl]-3-(4,6-dimethylpyrimidin-2-yl)sulfanyl-propan-1-amine hydrochloride

> <PUBCHEM_IUPAC_TRADITIONAL_NAME>
(4-bromobenzyl)-[3-[(4,6-dimethylpyrimidin-2-yl)thio]propyl]amine hydrochloride

> <PUBCHEM_MOLECULAR_FORMULA>
C16H21BrClN3S

> <PUBCHEM_MOLECULAR_WEIGHT>
402.78004

> <PUBCHEM_MONOISOTOPIC_WEIGHT>
401.032808

> <PUBCHEM_OPENEYE_CAN_SMILES>
CC1=CC(=NC(=N1)SCCCNCC2=CC=C(C=C2)Br)C.Cl

> <PUBCHEM_OPENEYE_ISO_SMILES>
CC1=CC(=NC(=N1)SCCCNCC2=CC=C(C=C2)Br)C.Cl

> <PUBCHEM_TOTAL_CHARGE>
0

$$$$
Largest isolated from Written by BCL::WriteToMDL,3027783
JMcorina  04211410293D 1   1.00000     0.00000 
CORINA 3.49 0026  01.06.2011
 42 43  0  0  0  0  0  0  0  0999 V2000
    9.4775   10.8346    7.7142 O   0  0  0  1  0  0  0  0  0  0  0  0
   11.7279   16.1495    7.7212 N   0  0  0  1  0  0  0  0  0  0  0  0
    9.4969    9.4057    7.7063 C   0  0  0  1  0  0  0  0  0  0  0  0
    9.5173    8.8958    9.1243 C   0  0  0  1  0  0  0  0  0  0  0  0
    8.2666    8.8905    7.0048 C   0  0  0  1  0  0  0  0  0  0  0  0
   10.3048    7.8095    9.4569 C   0  0  0  1  0  0  0  0  0  0  0  0
    8.3372    7.7406    6.2409 C   0  0  0  1  0  0  0  0  0  0  0  0
    8.7528    9.5179   10.0935 C   0  0  0  1  0  0  0  0  0  0  0  0
    7.0663    9.5647    7.1299 C   0  0  0  1  0  0  0  0  0  0  0  0
   10.7749   11.4335    7.7050 C   0  0  0  1  0  0  0  0  0  0  0  0
   10.3235    7.3418   10.7576 C   0  0  0  1  0  0  0  0  0  0  0  0
    7.2087    7.2680    5.5974 C   0  0  0  1  0  0  0  0  0  0  0  0
    8.7714    9.0501   11.3942 C   0  0  0  1  0  0  0  0  0  0  0  0
    5.9378    9.0921    6.4865 C   0  0  0  1  0  0  0  0  0  0  0  0
    9.5549    7.9606   11.7257 C   0  0  0  1  0  0  0  0  0  0  0  0
    6.0096    7.9451    5.7182 C   0  0  0  1  0  0  0  0  0  0  0  0
   10.3941   15.5338    7.7307 C   0  0  0  1  0  0  0  0  0  0  0  0
   10.6388   12.8992    7.7142 C   0  0  0  1  0  0  0  0  0  0  0  0
   10.5303   14.0681    7.7215 C   0  0  0  1  0  0  0  0  0  0  0  0
   11.6376   17.5976    7.4917 C   0  0  0  1  0  0  0  0  0  0  0  0
   12.4511   15.8579    8.9661 C   0  0  0  1  0  0  0  0  0  0  0  0
   10.3868    9.0573    7.1821 H   0  0  0  1  0  0  0  0  0  0  0  0
    9.2740    7.2116    6.1465 H   0  0  0  1  0  0  0  0  0  0  0  0
   10.9053    7.3261    8.7005 H   0  0  0  1  0  0  0  0  0  0  0  0
    7.0102   10.4605    7.7306 H   0  0  0  1  0  0  0  0  0  0  0  0
    8.1411   10.3695    9.8347 H   0  0  0  1  0  0  0  0  0  0  0  0
   11.3286   11.1145    8.5880 H   0  0  0  1  0  0  0  0  0  0  0  0
   11.3116   11.1241    6.8082 H   0  0  0  1  0  0  0  0  0  0  0  0
    7.2639    6.3700    5.0000 H   0  0  0  1  0  0  0  0  0  0  0  0
   10.9383    6.4926   11.0173 H   0  0  0  1  0  0  0  0  0  0  0  0
    5.0000    9.6186    6.5845 H   0  0  0  1  0  0  0  0  0  0  0  0
    8.1744    9.5364   12.1515 H   0  0  0  1  0  0  0  0  0  0  0  0
    9.5693    7.5949   12.7418 H   0  0  0  1  0  0  0  0  0  0  0  0
    5.1280    7.5761    5.2152 H   0  0  0  1  0  0  0  0  0  0  0  0
    9.8574   15.8432    8.6275 H   0  0  0  1  0  0  0  0  0  0  0  0
    9.8404   15.8528    6.8476 H   0  0  0  1  0  0  0  0  0  0  0  0
   11.0470   18.0552    8.2854 H   0  0  0  1  0  0  0  0  0  0  0  0
   12.5648   14.7794    9.0762 H   0  0  0  1  0  0  0  0  0  0  0  0
   13.4352   16.3254    8.9327 H   0  0  0  1  0  0  0  0  0  0  0  0
   11.8900   16.2524    9.8133 H   0  0  0  1  0  0  0  0  0  0  0  0
   12.6389   18.0283    7.4895 H   0  0  0  1  0  0  0  0  0  0  0  0
   11.1598   17.7840    6.5299 H   0  0  0  1  0  0  0  0  0  0  0  0
  1  3  1  0  0  0  0
  1 10  1  0  0  0  0
  2 17  1  0  0  0  0
  2 20  1  0  0  0  0
  2 21  1  0  0  0  0
  3  4  1  0  0  0  0
  3  5  1  0  0  0  0
  3 22  1  0  0  0  0
  4  6  4  0  0  0  0
  4  8  4  0  0  0  0
  5  7  4  0  0  0  0
  5  9  4  0  0  0  0
  6 11  4  0  0  0  0
  6 24  1  0  0  0  0
  7 12  4  0  0  0  0
  7 23  1  0  0  0  0
  8 13  4  0  0  0  0
  8 26  1  0  0  0  0
  9 14  4  0  0  0  0
  9 25  1  0  0  0  0
 10 18  1  0  0  0  0
 10 27  1  0  0  0  0
 10 28  1  0  0  0  0
 11 15  4  0  0  0  0
 11 30  1  0  0  0  0
 12 16  4  0  0  0  0
 12 29  1  0  0  0  0
 13 15  4  0  0  0  0
 13 32  1  0  0  0  0
 14 16  4  0  0  0  0
 14 31  1  0  0  0  0
 15 33  1  0  0  0  0
 16 34  1  0  0  0  0
 17 19  1  0  0  0  0
 17 35  1  0  0  0  0
 17 36  1  0  0  0  0
 18 19  3  0  0  0  0
 20 37  1  0  0  0  0
 20 41  1  0  0  0  0
 20 42  1  0  0  0  0
 21 38  1  0  0  0  0
 21 39  1  0  0  0  0
 21 40  1  0  0  0  0
M  END
> <Activity>
0.01

> <Mapped(file=2032.csv.activities,property=Cached(PUBCHEM_COMPOUND_CID))>
100

> <MatchIndices>
70 

> <PUBCHEM_ATOM_DEF_STEREO_COUNT>
0

> <PUBCHEM_ATOM_UDEF_STEREO_COUNT>
0

> <PUBCHEM_BONDANNOTATIONS>
10  15  8
12  16  8
13  17  8
14  16  8
15  17  8
5  7  8
5  9  8
6  10  8
6  8  8
7  12  8
8  13  8
9  14  8

> <PUBCHEM_BOND_DEF_STEREO_COUNT>
0

> <PUBCHEM_BOND_UDEF_STEREO_COUNT>
0

> <PUBCHEM_CACTVS_COMPLEXITY>
321

> <PUBCHEM_CACTVS_HBOND_ACCEPTOR>
2

> <PUBCHEM_CACTVS_HBOND_DONOR>
1

> <PUBCHEM_CACTVS_ROTATABLE_BOND>
5

> <PUBCHEM_CACTVS_SUBSKEYS>
AAADceB6IAAEAAAAAAAAAAAAAAAAAAAAAAAwYAAAAAAAAAABQAAAHgAAAAAADBThmAYyAIMABADAEiBCAAACAAAgAAAIiAAICIgIJiKAMRiCMAAkwAEIqAeAwOAOAAAAAAAAAAAAAAAAAAAAAAAAAAAAAA==

> <PUBCHEM_CACTVS_TAUTO_COUNT>
1

> <PUBCHEM_CACTVS_TPSA>
12.5

> <PUBCHEM_COMPONENT_COUNT>
2

> <PUBCHEM_COMPOUND_CANONICALIZED>
1

> <PUBCHEM_COMPOUND_CID>
3027783

> <PUBCHEM_COORDINATE_TYPE>
1
5
255

> <PUBCHEM_EXACT_MASS>
315.138992

> <PUBCHEM_HEAVY_ATOM_COUNT>
22

> <PUBCHEM_ISOTOPIC_ATOM_COUNT>
0

> <PUBCHEM_IUPAC_CAS_NAME>
4-(diphenylmethyl)oxy-N,N-dimethyl-2-butyn-1-amine hydrochloride

> <PUBCHEM_IUPAC_INCHI>
InChI=1S/C19H21NO.ClH/c1-20(2)15-9-10-16-21-19(17-11-5-3-6-12-17)18-13-7-4-8-14-18;/h3-8,11-14,19H,15-16H2,1-2H3;1H

> <PUBCHEM_IUPAC_INCHIKEY>
LQCCLNWDNYCOLG-UHFFFAOYSA-N

> <PUBCHEM_IUPAC_NAME>
4-benzhydryloxy-N,N-dimethylbut-2-yn-1-amine hydrochloride

> <PUBCHEM_IUPAC_OPENEYE_NAME>
4-benzhydryloxy-N,N-dimethyl-but-2-yn-1-amine hydrochloride

> <PUBCHEM_IUPAC_SYSTEMATIC_NAME>
4-(diphenylmethyl)oxy-N,N-dimethyl-but-2-yn-1-amine hydrochloride

> <PUBCHEM_IUPAC_TRADITIONAL_NAME>
4-benzhydryloxybut-2-ynyl(dimethyl)amine hydrochloride

> <PUBCHEM_MOLECULAR_FORMULA>
C19H22ClNO

> <PUBCHEM_MOLECULAR_WEIGHT>
315.83708

> <PUBCHEM_MONOISOTOPIC_WEIGHT>
315.138992

> <PUBCHEM_OPENEYE_CAN_SMILES>
CN(C)CC#CCOC(C1=CC=CC=C1)C2=CC=CC=C2.Cl

> <PUBCHEM_OPENEYE_ISO_SMILES>
CN(C)CC#CCOC(C1=CC=CC=C1)C2=CC=CC=C2.Cl

> <PUBCHEM_TOTAL_CHARGE>
0

$$$$
Largest isolated from Written by BCL::WriteToMDL,3665884
JMcorina  04211410293D 1   1.00000     0.00000 
CORINA 3.49 0026  01.06.2011
 29 30  0  0  0  0  0  0  0  0999 V2000
   -1.7620   -6.0289    1.6181 Cl  0  0  0  1  0  0  0  0  0  0  0  0
   -5.6381   -5.2740   -2.6129 F   0  0  0  1  0  0  0  0  0  0  0  0
   -4.9854   -7.4370   -2.2743 F   0  0  0  1  0  0  0  0  0  0  0  0
   -4.2790   -6.3078   -4.1304 F   0  0  0  1  0  0  0  0  0  0  0  0
   -0.0164    1.3548    0.0095 O   0  0  0  1  0  0  0  0  0  0  0  0
   -1.3879   -4.4656   -1.9815 N   0  0  0  1  0  0  0  0  0  0  0  0
    2.1897   -5.1100   -1.2762 N   0  0  0  1  0  0  0  0  0  0  0  0
    0.0605   -4.2770   -0.0215 C   0  0  0  1  0  0  0  0  0  0  0  0
    0.0396   -2.7702   -0.0132 C   0  0  0  1  0  0  0  0  0  0  0  0
   -1.1697   -4.7926   -0.7227 C   0  0  0  1  0  0  0  0  0  0  0  0
   -2.0575   -5.6031   -0.0387 C   0  0  0  1  0  0  0  0  0  0  0  0
    0.0417   -2.0865    1.1886 C   0  0  0  1  0  0  0  0  0  0  0  0
    0.0241   -2.0736   -1.2075 C   0  0  0  1  0  0  0  0  0  0  0  0
   -3.3816   -5.7062   -2.0170 C   0  0  0  1  0  0  0  0  0  0  0  0
   -3.1874   -6.0718   -0.6942 C   0  0  0  1  0  0  0  0  0  0  0  0
   -2.4504   -4.8928   -2.6350 C   0  0  0  1  0  0  0  0  0  0  0  0
    0.0230   -0.7053    1.1989 C   0  0  0  1  0  0  0  0  0  0  0  0
    0.0053   -0.6923   -1.2026 C   0  0  0  1  0  0  0  0  0  0  0  0
    0.0021   -0.0041    0.0020 C   0  0  0  1  0  0  0  0  0  0  0  0
    1.2623   -4.7472   -0.7297 C   0  0  0  1  0  0  0  0  0  0  0  0
   -4.5927   -6.1899   -2.7722 C   0  0  0  1  0  0  0  0  0  0  0  0
    0.0756   -4.6458    1.0041 H   0  0  0  1  0  0  0  0  0  0  0  0
    0.0576   -2.6329    2.1201 H   0  0  0  1  0  0  0  0  0  0  0  0
    0.0270   -2.6098   -2.1449 H   0  0  0  1  0  0  0  0  0  0  0  0
   -3.8981   -6.7066   -0.1859 H   0  0  0  1  0  0  0  0  0  0  0  0
   -2.5949   -4.6037   -3.6655 H   0  0  0  1  0  0  0  0  0  0  0  0
    0.0242   -0.1717    2.1379 H   0  0  0  1  0  0  0  0  0  0  0  0
   -0.0064   -0.1486   -2.1357 H   0  0  0  1  0  0  0  0  0  0  0  0
    0.8616    1.7601    0.0033 H   0  0  0  1  0  0  0  0  0  0  0  0
  1 11  1  0  0  0  0
  2 21  1  0  0  0  0
  3 21  1  0  0  0  0
  4 21  1  0  0  0  0
  5 19  1  0  0  0  0
  5 29  1  0  0  0  0
  6 10  4  0  0  0  0
  6 16  4  0  0  0  0
  7 20  3  0  0  0  0
  8  9  1  0  0  0  0
  8 10  1  0  0  0  0
  8 20  1  0  0  0  0
  8 22  1  0  0  0  0
  9 12  4  0  0  0  0
  9 13  4  0  0  0  0
 10 11  4  0  0  0  0
 11 15  4  0  0  0  0
 12 17  4  0  0  0  0
 12 23  1  0  0  0  0
 13 18  4  0  0  0  0
 13 24  1  0  0  0  0
 14 15  4  0  0  0  0
 14 16  4  0  0  0  0
 14 21  1  0  0  0  0
 15 25  1  0  0  0  0
 16 26  1  0  0  0  0
 17 19  4  0  0  0  0
 17 27  1  0  0  0  0
 18 19  4  0  0  0  0
 18 28  1  0  0  0  0
M  END
> <Activity>
0.01

> <Mapped(file=2032.csv.activities,property=Cached(PUBCHEM_COMPOUND_CID))>
100

> <MatchIndices>
47 

> <PUBCHEM_ATOM_DEF_STEREO_COUNT>
0

> <PUBCHEM_ATOM_UDEF_STEREO_COUNT>
1

> <PUBCHEM_BONDANNOTATIONS>
10  11  8
11  15  8
12  17  8
13  18  8
14  15  8
14  16  8
17  19  8
18  19  8
6  10  8
6  16  8
8  20  3
9  12  8
9  13  8

> <PUBCHEM_BOND_DEF_STEREO_COUNT>
0

> <PUBCHEM_BOND_UDEF_STEREO_COUNT>
0

> <PUBCHEM_CACTVS_COMPLEXITY>
401

> <PUBCHEM_CACTVS_HBOND_ACCEPTOR>
6

> <PUBCHEM_CACTVS_HBOND_DONOR>
1

> <PUBCHEM_CACTVS_ROTATABLE_BOND>
2

> <PUBCHEM_CACTVS_SUBSKEYS>
AAADccBzIYAEAAAAAAAAAAAAAAAAAAAAAAA8QAAAAAAAAAABwAAAHwIACAAADQ7BnjQ8hpIIEgCwBzRnRACCgCAxJSAI2CA+TpgIpuLDk5PEcAhkwBHI2A+QwPAOoAAAAAAAAABAAAAAAAAAAAAAAAAAAA==

> <PUBCHEM_CACTVS_TAUTO_COUNT>
4

> <PUBCHEM_CACTVS_TPSA>
56.9

> <PUBCHEM_COMPONENT_COUNT>
1

> <PUBCHEM_COMPOUND_CANONICALIZED>
1

> <PUBCHEM_COMPOUND_CID>
3665884

> <PUBCHEM_COORDINATE_TYPE>
1
5
255

> <PUBCHEM_EXACT_MASS>
312.027725

> <PUBCHEM_HEAVY_ATOM_COUNT>
21

> <PUBCHEM_ISOTOPIC_ATOM_COUNT>
0

> <PUBCHEM_IUPAC_CAS_NAME>
2-[3-chloro-5-(trifluoromethyl)-2-pyridinyl]-2-(4-hydroxyphenyl)acetonitrile

> <PUBCHEM_IUPAC_INCHI>
InChI=1S/C14H8ClF3N2O/c15-12-5-9(14(16,17)18)7-20-13(12)11(6-19)8-1-3-10(21)4-2-8/h1-5,7,11,21H

> <PUBCHEM_IUPAC_INCHIKEY>
UKPOEKIFKHNIOV-UHFFFAOYSA-N

> <PUBCHEM_IUPAC_NAME>
2-[3-chloro-5-(trifluoromethyl)pyridin-2-yl]-2-(4-hydroxyphenyl)acetonitrile

> <PUBCHEM_IUPAC_OPENEYE_NAME>
2-[3-chloro-5-(trifluoromethyl)-2-pyridyl]-2-(4-hydroxyphenyl)acetonitrile

> <PUBCHEM_IUPAC_SYSTEMATIC_NAME>
2-[3-chloranyl-5-(trifluoromethyl)pyridin-2-yl]-2-(4-hydroxyphenyl)ethanenitrile

> <PUBCHEM_IUPAC_TRADITIONAL_NAME>
2-[3-chloro-5-(trifluoromethyl)-2-pyridyl]-2-(4-hydroxyphenyl)acetonitrile

> <PUBCHEM_MOLECULAR_FORMULA>
C14H8ClF3N2O

> <PUBCHEM_MOLECULAR_WEIGHT>
312.67433

> <PUBCHEM_MONOISOTOPIC_WEIGHT>
312.027725

> <PUBCHEM_OPENEYE_CAN_SMILES>
C1=CC(=CC=C1C(C#N)C2=C(C=C(C=N2)C(F)(F)F)Cl)O

> <PUBCHEM_OPENEYE_ISO_SMILES>
C1=CC(=CC=C1C(C#N)C2=C(C=C(C=N2)C(F)(F)F)Cl)O

> <PUBCHEM_TOTAL_CHARGE>
0

> <PUBCHEM_XLOGP3_AA>
3.4

$$$$
Largest isolated from Written by BCL::WriteToMDL,3176404
JMcorina  04211410293D 1   1.00000     0.00000 
CORINA 3.49 0026  01.06.2011
 45 47  0  0  0  0  0  0  0  0999 V2000
   -1.5304   -0.3779    2.2752 O   0  0  0  1  0  0  0  0  0  0  0  0
   -0.0178    1.4648    0.0101 N   0  0  0  1  0  0  0  0  0  0  0  0
   -3.3584   -1.1370    1.2888 N   0  0  0  1  0  0  0  0  0  0  0  0
    0.0021   -0.0041    0.0020 C   0  0  0  1  0  0  0  0  0  0  0  0
   -1.4117   -0.5257    0.0127 C   0  0  0  1  0  0  0  0  0  0  0  0
    1.3463    2.0098   -0.0000 C   0  0  0  1  0  0  0  0  0  0  0  0
    1.2847    3.5386    0.0088 C   0  0  0  1  0  0  0  0  0  0  0  0
   -4.0336   -1.4841    0.1379 C   0  0  0  1  0  0  0  0  0  0  0  0
   -3.3950   -1.3533   -1.1100 C   0  0  0  1  0  0  0  0  0  0  0  0
   -2.0211   -0.8493   -1.1546 C   0  0  0  1  0  0  0  0  0  0  0  0
    2.6841    4.0977   -0.0016 C   0  0  0  1  0  0  0  0  0  0  0  0
   -2.0967   -0.6751    1.2376 C   0  0  0  1  0  0  0  0  0  0  0  0
   -5.3385   -1.9624    0.1904 C   0  0  0  1  0  0  0  0  0  0  0  0
   -4.0752   -1.7048   -2.2803 C   0  0  0  1  0  0  0  0  0  0  0  0
   -5.9897   -2.3023   -0.9760 C   0  0  0  1  0  0  0  0  0  0  0  0
    3.3146    4.3606   -1.2036 C   0  0  0  1  0  0  0  0  0  0  0  0
   -5.3564   -2.1733   -2.2043 C   0  0  0  1  0  0  0  0  0  0  0  0
    3.3351    4.3530    1.1906 C   0  0  0  1  0  0  0  0  0  0  0  0
    4.5980    4.8734   -1.2131 C   0  0  0  1  0  0  0  0  0  0  0  0
   -6.0376   -2.1089    1.5174 C   0  0  0  1  0  0  0  0  0  0  0  0
    4.6189    4.8660    1.1811 C   0  0  0  1  0  0  0  0  0  0  0  0
    5.2512    5.1239   -0.0206 C   0  0  0  1  0  0  0  0  0  0  0  0
    5.2856    5.1591   -2.5233 C   0  0  0  1  0  0  0  0  0  0  0  0
    0.5123   -0.3556   -0.8948 H   0  0  0  1  0  0  0  0  0  0  0  0
    0.5293   -0.3651    0.8851 H   0  0  0  1  0  0  0  0  0  0  0  0
    1.8828    1.6627    0.8830 H   0  0  0  1  0  0  0  0  0  0  0  0
    1.8658    1.6723   -0.8968 H   0  0  0  1  0  0  0  0  0  0  0  0
    0.7482    3.8857   -0.8743 H   0  0  0  1  0  0  0  0  0  0  0  0
    0.7652    3.8761    0.9056 H   0  0  0  1  0  0  0  0  0  0  0  0
   -0.5563    1.8234   -0.7642 H   0  0  0  1  0  0  0  0  0  0  0  0
   -1.5043   -0.7381   -2.0963 H   0  0  0  1  0  0  0  0  0  0  0  0
   -3.8012   -1.2239    2.1474 H   0  0  0  1  0  0  0  0  0  0  0  0
   -3.5899   -1.6061   -3.2400 H   0  0  0  1  0  0  0  0  0  0  0  0
   -7.0030   -2.6736   -0.9335 H   0  0  0  1  0  0  0  0  0  0  0  0
    2.8043    4.1650   -2.1351 H   0  0  0  1  0  0  0  0  0  0  0  0
   -5.8815   -2.4447   -3.1082 H   0  0  0  1  0  0  0  0  0  0  0  0
    2.8408    4.1521    2.1296 H   0  0  0  1  0  0  0  0  0  0  0  0
   -6.5616   -1.1834    1.7562 H   0  0  0  1  0  0  0  0  0  0  0  0
   -6.7542   -2.9283    1.4620 H   0  0  0  1  0  0  0  0  0  0  0  0
   -5.3025   -2.3209    2.2939 H   0  0  0  1  0  0  0  0  0  0  0  0
    5.1275    5.0658    2.1127 H   0  0  0  1  0  0  0  0  0  0  0  0
    6.2542    5.5242   -0.0280 H   0  0  0  1  0  0  0  0  0  0  0  0
    5.0702    6.1823   -2.8312 H   0  0  0  1  0  0  0  0  0  0  0  0
    6.3619    5.0347   -2.4035 H   0  0  0  1  0  0  0  0  0  0  0  0
    4.9222    4.4669   -3.2828 H   0  0  0  1  0  0  0  0  0  0  0  0
  1 12  2  0  0  0  0
  2  4  1  0  0  0  0
  2  6  1  0  0  0  0
  2 30  1  0  0  0  0
  3  8  1  0  0  0  0
  3 12  1  0  0  0  0
  3 32  1  0  0  0  0
  4  5  1  0  0  0  0
  4 24  1  0  0  0  0
  4 25  1  0  0  0  0
  5 10  2  0  0  0  0
  5 12  1  0  0  0  0
  6  7  1  0  0  0  0
  6 26  1  0  0  0  0
  6 27  1  0  0  0  0
  7 11  1  0  0  0  0
  7 28  1  0  0  0  0
  7 29  1  0  0  0  0
  8  9  4  0  0  0  0
  8 13  4  0  0  0  0
  9 10  1  0  0  0  0
  9 14  4  0  0  0  0
 10 31  1  0  0  0  0
 11 16  4  0  0  0  0
 11 18  4  0  0  0  0
 13 15  4  0  0  0  0
 13 20  1  0  0  0  0
 14 17  4  0  0  0  0
 14 33  1  0  0  0  0
 15 17  4  0  0  0  0
 15 34  1  0  0  0  0
 16 19  4  0  0  0  0
 16 35  1  0  0  0  0
 17 36  1  0  0  0  0
 18 21  4  0  0  0  0
 18 37  1  0  0  0  0
 19 22  4  0  0  0  0
 19 23  1  0  0  0  0
 20 38  1  0  0  0  0
 20 39  1  0  0  0  0
 20 40  1  0  0  0  0
 21 22  4  0  0  0  0
 21 41  1  0  0  0  0
 22 42  1  0  0  0  0
 23 43  1  0  0  0  0
 23 44  1  0  0  0  0
 23 45  1  0  0  0  0
M  END
> <Activity>
0.01

> <Mapped(file=2032.csv.activities,property=Cached(PUBCHEM_COMPOUND_CID))>
100

> <MatchIndices>
108 

> <PUBCHEM_ATOM_DEF_STEREO_COUNT>
0

> <PUBCHEM_ATOM_UDEF_STEREO_COUNT>
0

> <PUBCHEM_BONDANNOTATIONS>
11  16  8
11  18  8
13  15  8
14  17  8
15  17  8
16  19  8
18  21  8
19  22  8
21  22  8
3  12  8
3  8  8
5  10  8
5  12  8
8  13  8
8  9  8
9  10  8
9  14  8

> <PUBCHEM_BOND_DEF_STEREO_COUNT>
0

> <PUBCHEM_BOND_UDEF_STEREO_COUNT>
0

> <PUBCHEM_CACTVS_COMPLEXITY>
445

> <PUBCHEM_CACTVS_HBOND_ACCEPTOR>
2

> <PUBCHEM_CACTVS_HBOND_DONOR>
2

> <PUBCHEM_CACTVS_ROTATABLE_BOND>
5

> <PUBCHEM_CACTVS_SUBSKEYS>
AAADceB7IAAAAAAAAAAAAAAAAAAAAAAAAAAwYIAAAAAAAACBQAAAHgAQAAAADAjBmAQywILAAACIAiVSUACCAAAhAAAIiIEIRMgIICrA0ZGEIAhglADIyYcQgMAOAAACAAACAAAAAAQAAAQAAAAAAAAAAA==

> <PUBCHEM_CACTVS_TAUTO_COUNT>
2

> <PUBCHEM_CACTVS_TPSA>
41.1

> <PUBCHEM_COMPONENT_COUNT>
1

> <PUBCHEM_COMPOUND_CANONICALIZED>
1

> <PUBCHEM_COMPOUND_CID>
3176404

> <PUBCHEM_COORDINATE_TYPE>
1
5
255

> <PUBCHEM_EXACT_MASS>
306.173213

> <PUBCHEM_HEAVY_ATOM_COUNT>
23

> <PUBCHEM_ISOTOPIC_ATOM_COUNT>
0

> <PUBCHEM_IUPAC_CAS_NAME>
8-methyl-3-[[2-(3-methylphenyl)ethylamino]methyl]-1H-quinolin-2-one

> <PUBCHEM_IUPAC_INCHI>
InChI=1S/C20H22N2O/c1-14-5-3-7-16(11-14)9-10-21-13-18-12-17-8-4-6-15(2)19(17)22-20(18)23/h3-8,11-12,21H,9-10,13H2,1-2H3,(H,22,23)

> <PUBCHEM_IUPAC_INCHIKEY>
PAUKZWZGQWSTHC-UHFFFAOYSA-N

> <PUBCHEM_IUPAC_NAME>
8-methyl-3-[[2-(3-methylphenyl)ethylamino]methyl]-1H-quinolin-2-one

> <PUBCHEM_IUPAC_OPENEYE_NAME>
8-methyl-3-[[2-(m-tolyl)ethylamino]methyl]-1H-quinolin-2-one

> <PUBCHEM_IUPAC_SYSTEMATIC_NAME>
8-methyl-3-[[2-(3-methylphenyl)ethylamino]methyl]-1H-quinolin-2-one

> <PUBCHEM_IUPAC_TRADITIONAL_NAME>
8-methyl-3-[[2-(m-tolyl)ethylamino]methyl]carbostyril

> <PUBCHEM_MOLECULAR_FORMULA>
C20H22N2O

> <PUBCHEM_MOLECULAR_WEIGHT>
306.40148

> <PUBCHEM_MONOISOTOPIC_WEIGHT>
306.173213

> <PUBCHEM_OPENEYE_CAN_SMILES>
CC1=CC(=CC=C1)CCNCC2=CC3=C(C(=CC=C3)C)NC2=O

> <PUBCHEM_OPENEYE_ISO_SMILES>
CC1=CC(=CC=C1)CCNCC2=CC3=C(C(=CC=C3)C)NC2=O

> <PUBCHEM_TOTAL_CHARGE>
0

> <PUBCHEM_XLOGP3_AA>
3.9

$$$$
Largest isolated from Written by BCL::WriteToMDL,2976153
JMcorina  04211410293D 1   1.00000     0.00000 
CORINA 3.49 0026  01.06.2011
 40 42  0  0  0  0  0  0  0  0999 V2000
   -9.7293   -5.5804    1.4770 Cl  0  0  0  1  0  0  0  0  0  0  0  0
   -0.2813    1.8167    0.0069 O   0  0  0  1  0  0  0  0  0  0  0  0
   -2.2147    0.0454   -1.2172 N   0  0  0  1  0  0  0  0  0  0  0  0
   -5.9900   -2.3129    0.2405 N   0  0  0  1  0  0  0  0  0  0  0  0
   -4.1369   -1.1263   -0.5397 N   0  0  0  1  0  0  0  0  0  0  0  0
   -6.0183   -1.3712   -1.8851 N   0  0  0  1  0  0  0  0  0  0  0  0
   -4.1396   -0.1631   -2.6886 C   0  0  0  1  0  0  0  0  0  0  0  0
   -3.4889   -0.4227   -1.4560 C   0  0  0  1  0  0  0  0  0  0  0  0
   -5.4488   -0.6694   -2.8764 C   0  0  0  1  0  0  0  0  0  0  0  0
   -5.3671   -1.5834   -0.7577 C   0  0  0  1  0  0  0  0  0  0  0  0
   -7.3250   -2.7009    0.0933 C   0  0  0  1  0  0  0  0  0  0  0  0
   -1.5600   -0.2333    0.0634 C   0  0  0  1  0  0  0  0  0  0  0  0
   -7.8058   -3.8116    0.7741 C   0  0  0  1  0  0  0  0  0  0  0  0
   -3.5278    0.5706   -3.7099 C   0  0  0  1  0  0  0  0  0  0  0  0
   -6.1113   -0.4257   -4.0868 C   0  0  0  1  0  0  0  0  0  0  0  0
   -8.1749   -1.9726   -0.7298 C   0  0  0  1  0  0  0  0  0  0  0  0
   -4.2010    0.7899   -4.8764 C   0  0  0  1  0  0  0  0  0  0  0  0
   -5.4873    0.2935   -5.0631 C   0  0  0  1  0  0  0  0  0  0  0  0
   -9.1266   -4.1921    0.6266 C   0  0  0  1  0  0  0  0  0  0  0  0
   -0.1645    0.3938    0.0699 C   0  0  0  1  0  0  0  0  0  0  0  0
   -6.8888   -4.6014    1.6721 C   0  0  0  1  0  0  0  0  0  0  0  0
   -9.4932   -2.3577   -0.8731 C   0  0  0  1  0  0  0  0  0  0  0  0
   -9.9685   -3.4675   -0.1986 C   0  0  0  1  0  0  0  0  0  0  0  0
   -1.7515    0.5594   -1.8969 H   0  0  0  1  0  0  0  0  0  0  0  0
   -2.1525    0.1904    0.8743 H   0  0  0  1  0  0  0  0  0  0  0  0
   -1.4745   -1.3112    0.2008 H   0  0  0  1  0  0  0  0  0  0  0  0
   -5.5001   -2.5548    1.0420 H   0  0  0  1  0  0  0  0  0  0  0  0
   -2.5298    0.9612   -3.5762 H   0  0  0  1  0  0  0  0  0  0  0  0
   -7.1099   -0.8052   -4.2457 H   0  0  0  1  0  0  0  0  0  0  0  0
   -7.8048   -1.1057   -1.2570 H   0  0  0  1  0  0  0  0  0  0  0  0
   -3.7289    1.3565   -5.6655 H   0  0  0  1  0  0  0  0  0  0  0  0
   -5.9992    0.4801   -5.9956 H   0  0  0  1  0  0  0  0  0  0  0  0
    0.3983    0.0370   -0.7927 H   0  0  0  1  0  0  0  0  0  0  0  0
    0.3562    0.1122    0.9852 H   0  0  0  1  0  0  0  0  0  0  0  0
   -6.9285   -4.1927    2.6818 H   0  0  0  1  0  0  0  0  0  0  0  0
   -7.2064   -5.6439    1.6893 H   0  0  0  1  0  0  0  0  0  0  0  0
   -5.8681   -4.5387    1.2947 H   0  0  0  1  0  0  0  0  0  0  0  0
  -10.1540   -1.7914   -1.5126 H   0  0  0  1  0  0  0  0  0  0  0  0
  -10.9998   -3.7669   -0.3130 H   0  0  0  1  0  0  0  0  0  0  0  0
    0.5667    2.2814    0.0073 H   0  0  0  1  0  0  0  0  0  0  0  0
  1 19  1  0  0  0  0
  2 20  1  0  0  0  0
  2 40  1  0  0  0  0
  3  8  1  0  0  0  0
  3 12  1  0  0  0  0
  3 24  1  0  0  0  0
  4 10  1  0  0  0  0
  4 11  1  0  0  0  0
  4 27  1  0  0  0  0
  5  8  4  0  0  0  0
  5 10  4  0  0  0  0
  6  9  4  0  0  0  0
  6 10  4  0  0  0  0
  7  8  4  0  0  0  0
  7  9  4  0  0  0  0
  7 14  4  0  0  0  0
  9 15  4  0  0  0  0
 11 13  4  0  0  0  0
 11 16  4  0  0  0  0
 12 20  1  0  0  0  0
 12 25  1  0  0  0  0
 12 26  1  0  0  0  0
 13 19  4  0  0  0  0
 13 21  1  0  0  0  0
 14 17  4  0  0  0  0
 14 28  1  0  0  0  0
 15 18  4  0  0  0  0
 15 29  1  0  0  0  0
 16 22  4  0  0  0  0
 16 30  1  0  0  0  0
 17 18  4  0  0  0  0
 17 31  1  0  0  0  0
 18 32  1  0  0  0  0
 19 23  4  0  0  0  0
 20 33  1  0  0  0  0
 20 34  1  0  0  0  0
 21 35  1  0  0  0  0
 21 36  1  0  0  0  0
 21 37  1  0  0  0  0
 22 23  4  0  0  0  0
 22 38  1  0  0  0  0
 23 39  1  0  0  0  0
M  END
> <Activity>
0.01

> <Mapped(file=2032.csv.activities,property=Cached(PUBCHEM_COMPOUND_CID))>
100

> <MatchIndices>
116 

> <PUBCHEM_ATOM_DEF_STEREO_COUNT>
0

> <PUBCHEM_ATOM_UDEF_STEREO_COUNT>
0

> <PUBCHEM_BONDANNOTATIONS>
10  16  8
12  14  8
12  17  8
14  20  8
15  18  8
16  19  8
17  23  8
18  19  8
20  24  8
23  24  8
6  11  8
6  9  8
7  10  8
7  11  8
8  10  8
8  15  8
8  9  8

> <PUBCHEM_BOND_DEF_STEREO_COUNT>
0

> <PUBCHEM_BOND_UDEF_STEREO_COUNT>
0

> <PUBCHEM_CACTVS_COMPLEXITY>
373

> <PUBCHEM_CACTVS_HBOND_ACCEPTOR>
1

> <PUBCHEM_CACTVS_HBOND_DONOR>
4

> <PUBCHEM_CACTVS_ROTATABLE_BOND>
5

> <PUBCHEM_CACTVS_SUBSKEYS>
AAADceB7oAAGAAAAAAAAAAAAAAAAAAAAAAA8YIAAAAAAAACx9AAAHgIQCAAADArhniYz8PbIEgCgAyZiZACCgCkhB6AJmKA4ZpiKOKLB29GEJAhokALYyCcQgAAOAAAAAAIDAAAAAAAABAYAAAAAAAAAAA==

> <PUBCHEM_CACTVS_TAUTO_COUNT>
9

> <PUBCHEM_CACTVS_TPSA>
70.1

> <PUBCHEM_COMPONENT_COUNT>
2

> <PUBCHEM_COMPOUND_CANONICALIZED>
1

> <PUBCHEM_COMPOUND_CID>
2976153

> <PUBCHEM_COORDINATE_TYPE>
1
5
255

> <PUBCHEM_EXACT_MASS>
364.085767

> <PUBCHEM_HEAVY_ATOM_COUNT>
24

> <PUBCHEM_ISOTOPIC_ATOM_COUNT>
0

> <PUBCHEM_IUPAC_CAS_NAME>
2-[[2-(3-chloro-2-methylanilino)-4-quinazolinyl]amino]ethanol hydrochloride

> <PUBCHEM_IUPAC_INCHI>
InChI=1S/C17H17ClN4O.ClH/c1-11-13(18)6-4-8-14(11)20-17-21-15-7-3-2-5-12(15)16(22-17)19-9-10-23;/h2-8,23H,9-10H2,1H3,(H2,19,20,21,22);1H

> <PUBCHEM_IUPAC_INCHIKEY>
JUZNXWNRMSWKBF-UHFFFAOYSA-N

> <PUBCHEM_IUPAC_NAME>
2-[[2-(3-chloro-2-methylanilino)quinazolin-4-yl]amino]ethanol hydrochloride

> <PUBCHEM_IUPAC_OPENEYE_NAME>
2-[[2-(3-chloro-2-methyl-anilino)quinazolin-4-yl]amino]ethanol hydrochloride

> <PUBCHEM_IUPAC_SYSTEMATIC_NAME>
2-[[2-[(3-chloranyl-2-methyl-phenyl)amino]quinazolin-4-yl]amino]ethanol hydrochloride

> <PUBCHEM_IUPAC_TRADITIONAL_NAME>
2-[[2-(3-chloro-2-methyl-anilino)quinazolin-4-yl]amino]ethanol hydrochloride

> <PUBCHEM_MOLECULAR_FORMULA>
C17H18Cl2N4O

> <PUBCHEM_MOLECULAR_WEIGHT>
365.25702

> <PUBCHEM_MONOISOTOPIC_WEIGHT>
364.085767

> <PUBCHEM_OPENEYE_CAN_SMILES>
CC1=C(C=CC=C1Cl)NC2=NC3=CC=CC=C3C(=N2)NCCO.Cl

> <PUBCHEM_OPENEYE_ISO_SMILES>
CC1=C(C=CC=C1Cl)NC2=NC3=CC=CC=C3C(=N2)NCCO.Cl

> <PUBCHEM_TOTAL_CHARGE>
0

$$$$
Largest isolated from Written by BCL::WriteToMDL,2935593
JMcorina  04211410293D 1   1.00000     0.00000 
CORINA 3.49 0026  01.06.2011
 49 50  0  0  0  0  0  0  0  0999 V2000
   -0.0674    1.3539   -0.0321 O   0  0  0  1  0  0  0  0  0  0  0  0
    2.0719    5.7203    0.1249 N   0  0  0  1  0  0  0  0  0  0  0  0
    0.0600   -4.2770   -0.0210 C   0  0  0  1  0  0  0  0  0  0  0  0
    0.0260   -2.7704   -0.0243 C   0  0  0  1  0  0  0  0  0  0  0  0
    0.8992   -4.7631   -1.1745 C   0  0  0  1  0  0  0  0  0  0  0  0
    0.6662   -4.7705    1.2942 C   0  0  0  1  0  0  0  0  0  0  0  0
   -1.3636   -4.8197   -0.1617 C   0  0  0  1  0  0  0  0  0  0  0  0
   -1.1842   -2.1076   -0.1139 C   0  0  0  1  0  0  0  0  0  0  0  0
    1.2045   -2.0532    0.0678 C   0  0  0  1  0  0  0  0  0  0  0  0
    1.9530   -5.6281   -0.9464 C   0  0  0  1  0  0  0  0  0  0  0  0
    0.6117   -4.3483   -2.4614 C   0  0  0  1  0  0  0  0  0  0  0  0
   -0.0366   -0.0047   -0.0296 C   0  0  0  1  0  0  0  0  0  0  0  0
   -1.2181   -0.7266   -0.1167 C   0  0  0  1  0  0  0  0  0  0  0  0
    1.1759   -0.6721    0.0654 C   0  0  0  1  0  0  0  0  0  0  0  0
    0.9532    3.5433    0.0427 C   0  0  0  1  0  0  0  0  0  0  0  0
    1.1874    2.0314    0.0604 C   0  0  0  1  0  0  0  0  0  0  0  0
    2.7228   -6.0740   -2.0044 C   0  0  0  1  0  0  0  0  0  0  0  0
    1.3814   -4.7942   -3.5195 C   0  0  0  1  0  0  0  0  0  0  0  0
    2.2967    4.2687    0.1418 C   0  0  0  1  0  0  0  0  0  0  0  0
    2.4385   -5.6551   -3.2908 C   0  0  0  1  0  0  0  0  0  0  0  0
    1.3503    6.1553    1.3282 C   0  0  0  1  0  0  0  0  0  0  0  0
    3.3398    6.4477   -0.0204 C   0  0  0  1  0  0  0  0  0  0  0  0
    0.0593   -4.4190    2.1286 H   0  0  0  1  0  0  0  0  0  0  0  0
    0.6909   -5.8603    1.2967 H   0  0  0  1  0  0  0  0  0  0  0  0
   -1.7954   -4.4681   -1.0987 H   0  0  0  1  0  0  0  0  0  0  0  0
   -1.3389   -5.9094   -0.1593 H   0  0  0  1  0  0  0  0  0  0  0  0
   -1.9705   -4.4681    0.6726 H   0  0  0  1  0  0  0  0  0  0  0  0
    1.6804   -4.3840    1.3945 H   0  0  0  1  0  0  0  0  0  0  0  0
   -2.1036   -2.6701   -0.1820 H   0  0  0  1  0  0  0  0  0  0  0  0
    2.1481   -2.5733    0.1421 H   0  0  0  1  0  0  0  0  0  0  0  0
    2.1751   -5.9554    0.0586 H   0  0  0  1  0  0  0  0  0  0  0  0
   -0.2146   -3.6762   -2.6403 H   0  0  0  1  0  0  0  0  0  0  0  0
   -2.1636   -0.2094   -0.1869 H   0  0  0  1  0  0  0  0  0  0  0  0
    2.0968   -0.1124    0.1371 H   0  0  0  1  0  0  0  0  0  0  0  0
    0.4568    3.8233   -0.8864 H   0  0  0  1  0  0  0  0  0  0  0  0
    0.3257    3.8236    0.8888 H   0  0  0  1  0  0  0  0  0  0  0  0
    1.6839    1.7515    0.9895 H   0  0  0  1  0  0  0  0  0  0  0  0
    1.8150    1.7511   -0.7856 H   0  0  0  1  0  0  0  0  0  0  0  0
    3.5465   -6.7493   -1.8261 H   0  0  0  1  0  0  0  0  0  0  0  0
    1.1565   -4.4704   -4.5250 H   0  0  0  1  0  0  0  0  0  0  0  0
    2.9242    3.9883   -0.7042 H   0  0  0  1  0  0  0  0  0  0  0  0
    2.7932    3.9887    1.0709 H   0  0  0  1  0  0  0  0  0  0  0  0
    3.0401   -6.0031   -4.1174 H   0  0  0  1  0  0  0  0  0  0  0  0
    1.9341    5.9023    2.2133 H   0  0  0  1  0  0  0  0  0  0  0  0
    1.1971    7.2338    1.2900 H   0  0  0  1  0  0  0  0  0  0  0  0
    0.3843    5.6525    1.3742 H   0  0  0  1  0  0  0  0  0  0  0  0
    3.8201    6.1575   -0.9549 H   0  0  0  1  0  0  0  0  0  0  0  0
    3.1444    7.5200   -0.0300 H   0  0  0  1  0  0  0  0  0  0  0  0
    3.9956    6.2054    0.8158 H   0  0  0  1  0  0  0  0  0  0  0  0
  1 12  1  0  0  0  0
  1 16  1  0  0  0  0
  2 19  1  0  0  0  0
  2 21  1  0  0  0  0
  2 22  1  0  0  0  0
  3  4  1  0  0  0  0
  3  5  1  0  0  0  0
  3  6  1  0  0  0  0
  3  7  1  0  0  0  0
  4  8  4  0  0  0  0
  4  9  4  0  0  0  0
  5 10  4  0  0  0  0
  5 11  4  0  0  0  0
  6 23  1  0  0  0  0
  6 24  1  0  0  0  0
  6 28  1  0  0  0  0
  7 25  1  0  0  0  0
  7 26  1  0  0  0  0
  7 27  1  0  0  0  0
  8 13  4  0  0  0  0
  8 29  1  0  0  0  0
  9 14  4  0  0  0  0
  9 30  1  0  0  0  0
 10 17  4  0  0  0  0
 10 31  1  0  0  0  0
 11 18  4  0  0  0  0
 11 32  1  0  0  0  0
 12 13  4  0  0  0  0
 12 14  4  0  0  0  0
 13 33  1  0  0  0  0
 14 34  1  0  0  0  0
 15 16  1  0  0  0  0
 15 19  1  0  0  0  0
 15 35  1  0  0  0  0
 15 36  1  0  0  0  0
 16 37  1  0  0  0  0
 16 38  1  0  0  0  0
 17 20  4  0  0  0  0
 17 39  1  0  0  0  0
 18 20  4  0  0  0  0
 18 40  1  0  0  0  0
 19 41  1  0  0  0  0
 19 42  1  0  0  0  0
 20 43  1  0  0  0  0
 21 44  1  0  0  0  0
 21 45  1  0  0  0  0
 21 46  1  0  0  0  0
 22 47  1  0  0  0  0
 22 48  1  0  0  0  0
 22 49  1  0  0  0  0
M  END
> <Activity>
0.01

> <Mapped(file=2032.csv.activities,property=Cached(PUBCHEM_COMPOUND_CID))>
100

> <MatchIndices>
90 

> <PUBCHEM_ATOM_DEF_STEREO_COUNT>
0

> <PUBCHEM_ATOM_UDEF_STEREO_COUNT>
0

> <PUBCHEM_BONDANNOTATIONS>
12  17  8
13  18  8
14  21  8
15  22  8
16  17  8
16  18  8
21  24  8
22  24  8
8  12  8
8  13  8
9  14  8
9  15  8

> <PUBCHEM_BOND_DEF_STEREO_COUNT>
0

> <PUBCHEM_BOND_UDEF_STEREO_COUNT>
0

> <PUBCHEM_CACTVS_COMPLEXITY>
370

> <PUBCHEM_CACTVS_HBOND_ACCEPTOR>
6

> <PUBCHEM_CACTVS_HBOND_DONOR>
2

> <PUBCHEM_CACTVS_ROTATABLE_BOND>
8

> <PUBCHEM_CACTVS_SUBSKEYS>
AAADceB6OAAAAAAAAAAAAAAAAAAAAAAAAAAwYAAAAAAAAAABQAAAHgAACAAADgThmAYyDoMABgCIAiDSCAICCAAgIAAIiABOCIgNJiKEMRqGOCCmwBEJqAeAwPAPoAAAAAAAAABAAAAAAAAAAAAAAAAAAA==

> <PUBCHEM_CACTVS_TAUTO_COUNT>
1

> <PUBCHEM_CACTVS_TPSA>
87.1

> <PUBCHEM_COMPONENT_COUNT>
2

> <PUBCHEM_COMPOUND_CANONICALIZED>
1

> <PUBCHEM_COMPOUND_CID>
2935593

> <PUBCHEM_COORDINATE_TYPE>
1
5
255

> <PUBCHEM_EXACT_MASS>
387.204573

> <PUBCHEM_HEAVY_ATOM_COUNT>
28

> <PUBCHEM_ISOTOPIC_ATOM_COUNT>
0

> <PUBCHEM_IUPAC_CAS_NAME>
N,N-dimethyl-3-[4-(2-phenylpropan-2-yl)phenoxy]-1-propanamine; oxalic acid

> <PUBCHEM_IUPAC_INCHI>
InChI=1S/C20H27NO.C2H2O4/c1-20(2,17-9-6-5-7-10-17)18-11-13-19(14-12-18)22-16-8-15-21(3)4;3-1(4)2(5)6/h5-7,9-14H,8,15-16H2,1-4H3;(H,3,4)(H,5,6)

> <PUBCHEM_IUPAC_INCHIKEY>
AOSLPJHUFGVJJP-UHFFFAOYSA-N

> <PUBCHEM_IUPAC_NAME>
N,N-dimethyl-3-[4-(2-phenylpropan-2-yl)phenoxy]propan-1-amine; oxalic acid

> <PUBCHEM_IUPAC_OPENEYE_NAME>
N,N-dimethyl-3-[4-(1-methyl-1-phenyl-ethyl)phenoxy]propan-1-amine; oxalic acid

> <PUBCHEM_IUPAC_SYSTEMATIC_NAME>
N,N-dimethyl-3-[4-(2-phenylpropan-2-yl)phenoxy]propan-1-amine; ethanedioic acid

> <PUBCHEM_IUPAC_TRADITIONAL_NAME>
3-(4-cumylphenoxy)propyl-dimethyl-amine; oxalic acid

> <PUBCHEM_MOLECULAR_FORMULA>
C22H29NO5

> <PUBCHEM_MOLECULAR_WEIGHT>
387.46936

> <PUBCHEM_MONOISOTOPIC_WEIGHT>
387.204573

> <PUBCHEM_OPENEYE_CAN_SMILES>
CC(C)(C1=CC=CC=C1)C2=CC=C(C=C2)OCCCN(C)C.C(=O)(C(=O)O)O

> <PUBCHEM_OPENEYE_ISO_SMILES>
CC(C)(C1=CC=CC=C1)C2=CC=C(C=C2)OCCCN(C)C.C(=O)(C(=O)O)O

> <PUBCHEM_TOTAL_CHARGE>
0

$$$$
Largest isolated from Written by BCL::WriteToMDL,6898171
JMcorina  04211410293D 1   1.00000     0.00000 
CORINA 3.49 0026  01.06.2011
 40 41  0  0  0  0  0  0  0  0999 V2000
   -0.0186    1.5178    0.0104 S   0  0  0  1  0  0  0  0  0  0  0  0
    0.0021   -0.0041    0.0020 O   0  0  0  1  0  0  0  0  0  0  0  0
   -0.9005   -0.5602   -2.5367 O   0  0  0  1  0  0  0  0  0  0  0  0
    1.3390    1.9375   -0.0003 O   0  0  0  1  0  0  0  0  0  0  0  0
   -0.9617    1.9117   -0.9768 O   0  0  0  1  0  0  0  0  0  0  0  0
   -7.0495   -3.2198    0.1303 O   0  0  0  1  0  0  0  0  0  0  0  0
   -5.7760   -2.6275    0.3098 N   0  0  0  1  0  0  0  0  0  0  0  0
   -0.6830    2.0218    1.5625 C   0  0  0  1  0  0  0  0  0  0  0  0
   -1.2197   -0.5725   -0.1737 C   0  0  0  1  0  0  0  0  0  0  0  0
   -1.6767   -0.8543   -1.4594 C   0  0  0  1  0  0  0  0  0  0  0  0
    0.1583    2.2320    2.6391 C   0  0  0  1  0  0  0  0  0  0  0  0
   -2.0450    2.2127    1.7021 C   0  0  0  1  0  0  0  0  0  0  0  0
   -1.7255    2.8131    3.9978 C   0  0  0  1  0  0  0  0  0  0  0  0
   -0.3630    2.6274    3.8568 C   0  0  0  1  0  0  0  0  0  0  0  0
   -2.5663    2.6081    2.9198 C   0  0  0  1  0  0  0  0  0  0  0  0
   -2.0069   -0.8760    0.9279 C   0  0  0  1  0  0  0  0  0  0  0  0
   -2.9191   -1.4324   -1.6400 C   0  0  0  1  0  0  0  0  0  0  0  0
   -3.7140   -1.7328   -0.5313 C   0  0  0  1  0  0  0  0  0  0  0  0
   -3.2470   -1.4531    0.7551 C   0  0  0  1  0  0  0  0  0  0  0  0
   -2.2938    3.2438    5.3254 C   0  0  0  1  0  0  0  0  0  0  0  0
   -1.4320   -0.8763   -3.8250 C   0  0  0  1  0  0  0  0  0  0  0  0
   -5.0409   -2.3499   -0.7183 C   0  0  0  1  0  0  0  0  0  0  0  0
   -0.4243   -0.4764   -4.9046 C   0  0  0  1  0  0  0  0  0  0  0  0
    1.2228    2.0868    2.5289 H   0  0  0  1  0  0  0  0  0  0  0  0
   -2.7018    2.0531    0.8598 H   0  0  0  1  0  0  0  0  0  0  0  0
   -1.6471   -0.6600    1.9230 H   0  0  0  1  0  0  0  0  0  0  0  0
    0.2942    2.7908    4.6980 H   0  0  0  1  0  0  0  0  0  0  0  0
   -3.6303    2.7576    3.0288 H   0  0  0  1  0  0  0  0  0  0  0  0
   -3.2747   -1.6511   -2.6361 H   0  0  0  1  0  0  0  0  0  0  0  0
   -3.8574   -1.6890    1.6143 H   0  0  0  1  0  0  0  0  0  0  0  0
   -2.3250    4.3323    5.3714 H   0  0  0  1  0  0  0  0  0  0  0  0
   -3.3029    2.8465    5.4347 H   0  0  0  1  0  0  0  0  0  0  0  0
   -1.6646    2.8639    6.1304 H   0  0  0  1  0  0  0  0  0  0  0  0
   -1.6240   -1.9476   -3.8860 H   0  0  0  1  0  0  0  0  0  0  0  0
   -2.3635   -0.3311   -3.9775 H   0  0  0  1  0  0  0  0  0  0  0  0
   -5.3988   -2.5700   -1.7132 H   0  0  0  1  0  0  0  0  0  0  0  0
   -0.8298   -0.7175   -5.8872 H   0  0  0  1  0  0  0  0  0  0  0  0
   -0.2324    0.5948   -4.8436 H   0  0  0  1  0  0  0  0  0  0  0  0
    0.5071   -1.0217   -4.7521 H   0  0  0  1  0  0  0  0  0  0  0  0
   -7.5240   -3.3898    0.9556 H   0  0  0  1  0  0  0  0  0  0  0  0
  1  2  1  0  0  0  0
  1  4  2  0  0  0  0
  1  5  2  0  0  0  0
  1  8  1  0  0  0  0
  2  9  1  0  0  0  0
  3 10  1  0  0  0  0
  3 21  1  0  0  0  0
  6  7  1  0  0  0  0
  6 40  1  0  0  0  0
  7 22  2  0  0  0  0
  8 11  4  0  0  0  0
  8 12  4  0  0  0  0
  9 10  4  0  0  0  0
  9 16  4  0  0  0  0
 10 17  4  0  0  0  0
 11 14  4  0  0  0  0
 11 24  1  0  0  0  0
 12 15  4  0  0  0  0
 12 25  1  0  0  0  0
 13 14  4  0  0  0  0
 13 15  4  0  0  0  0
 13 20  1  0  0  0  0
 14 27  1  0  0  0  0
 15 28  1  0  0  0  0
 16 19  4  0  0  0  0
 16 26  1  0  0  0  0
 17 18  4  0  0  0  0
 17 29  1  0  0  0  0
 18 19  4  0  0  0  0
 18 22  1  0  0  0  0
 19 30  1  0  0  0  0
 20 31  1  0  0  0  0
 20 32  1  0  0  0  0
 20 33  1  0  0  0  0
 21 23  1  0  0  0  0
 21 34  1  0  0  0  0
 21 35  1  0  0  0  0
 22 36  1  0  0  0  0
 23 37  1  0  0  0  0
 23 38  1  0  0  0  0
 23 39  1  0  0  0  0
M  END
> <Activity>
0.01

> <Mapped(file=2032.csv.activities,property=Cached(PUBCHEM_COMPOUND_CID))>
100

> <MatchIndices>
199 

> <PUBCHEM_ATOM_DEF_STEREO_COUNT>
0

> <PUBCHEM_ATOM_UDEF_STEREO_COUNT>
0

> <PUBCHEM_BONDANNOTATIONS>
10  17  8
11  14  8
12  15  8
13  14  8
13  15  8
16  19  8
17  18  8
18  19  8
8  11  8
8  12  8
9  10  8
9  16  8

> <PUBCHEM_BOND_DEF_STEREO_COUNT>
1

> <PUBCHEM_BOND_UDEF_STEREO_COUNT>
0

> <PUBCHEM_CACTVS_COMPLEXITY>
479

> <PUBCHEM_CACTVS_HBOND_ACCEPTOR>
6

> <PUBCHEM_CACTVS_HBOND_DONOR>
1

> <PUBCHEM_CACTVS_ROTATABLE_BOND>
6

> <PUBCHEM_CACTVS_SUBSKEYS>
AAADceB6OABAAAAAAAAAAAAAAAAAAAAAAAAwYAAAAAAAAAABQAAAHgQECAAADATh2AYyB4AQBAKgAjBjAHBCCEAgIAAIiBgmiJgNJqKEMRqCOCKkwBEKqAeAwBAOMAABAAAAQABgAAIAAACAAAAAAAAAAA==

> <PUBCHEM_CACTVS_TAUTO_COUNT>
2

> <PUBCHEM_CACTVS_TPSA>
93.6

> <PUBCHEM_COMPONENT_COUNT>
1

> <PUBCHEM_COMPOUND_CANONICALIZED>
1

> <PUBCHEM_COMPOUND_CID>
6898171

> <PUBCHEM_COORDINATE_TYPE>
1
5
255

> <PUBCHEM_EXACT_MASS>
335.082744

> <PUBCHEM_HEAVY_ATOM_COUNT>
23

> <PUBCHEM_ISOTOPIC_ATOM_COUNT>
0

> <PUBCHEM_IUPAC_CAS_NAME>
4-methylbenzenesulfonic acid [2-ethoxy-4-[(E)-hydroxyiminomethyl]phenyl] ester

> <PUBCHEM_IUPAC_INCHI>
InChI=1S/C16H17NO5S/c1-3-21-16-10-13(11-17-18)6-9-15(16)22-23(19,20)14-7-4-12(2)5-8-14/h4-11,18H,3H2,1-2H3/b17-11+

> <PUBCHEM_IUPAC_INCHIKEY>
HGDFCODWMVUDAB-GZTJUZNOSA-N

> <PUBCHEM_IUPAC_NAME>
[2-ethoxy-4-[(E)-hydroxyiminomethyl]phenyl] 4-methylbenzenesulfonate

> <PUBCHEM_IUPAC_OPENEYE_NAME>
[2-ethoxy-4-[(E)-hydroxyiminomethyl]phenyl] 4-methylbenzenesulfonate

> <PUBCHEM_IUPAC_SYSTEMATIC_NAME>
[2-ethoxy-4-[(E)-hydroxyiminomethyl]phenyl] 4-methylbenzenesulfonate

> <PUBCHEM_IUPAC_TRADITIONAL_NAME>
4-methylbenzenesulfonic acid [2-ethoxy-4-[(E)-hydroximinomethyl]phenyl] ester

> <PUBCHEM_MOLECULAR_FORMULA>
C16H17NO5S

> <PUBCHEM_MOLECULAR_WEIGHT>
335.37488

> <PUBCHEM_MONOISOTOPIC_WEIGHT>
335.082744

> <PUBCHEM_OPENEYE_CAN_SMILES>
CCOC1=C(C=CC(=C1)C=NO)OS(=O)(=O)C2=CC=C(C=C2)C

> <PUBCHEM_OPENEYE_ISO_SMILES>
CCOC1=C(C=CC(=C1)/C=N/O)OS(=O)(=O)C2=CC=C(C=C2)C

> <PUBCHEM_TOTAL_CHARGE>
0

> <PUBCHEM_XLOGP3_AA>
3.4

$$$$
Largest isolated from Written by BCL::WriteToMDL,1889549
JMcorina  04211410293D 1   1.00000     0.00000 
CORINA 3.49 0026  01.06.2011
 50 52  0  0  0  0  0  0  0  0999 V2000
   -0.0225    1.8097    0.0120 S   0  0  0  1  0  0  0  0  0  0  0  0
   -2.1234   -0.7975    1.1204 O   0  0  0  1  0  0  0  0  0  0  0  0
   -6.8347   -2.5138   -1.0539 O   0  0  0  1  0  0  0  0  0  0  0  0
   -1.7736    1.1524   -4.2377 O   0  0  0  1  0  0  0  0  0  0  0  0
   -2.6037    1.5471   -2.2280 O   0  0  0  1  0  0  0  0  0  0  0  0
   -4.2598   -3.0226   -3.2271 N   0  0  0  1  0  0  0  0  0  0  0  0
   -3.4418   -1.2685   -0.5992 C   0  0  0  1  0  0  0  0  0  0  0  0
   -2.1419   -0.7853   -1.0805 C   0  0  0  1  0  0  0  0  0  0  0  0
   -4.6137   -1.6946   -1.2231 C   0  0  0  1  0  0  0  0  0  0  0  0
   -3.3546   -1.2485    0.8024 C   0  0  0  1  0  0  0  0  0  0  0  0
   -1.4117   -0.5257    0.0127 C   0  0  0  1  0  0  0  0  0  0  0  0
   -4.7078   -1.7160   -2.7270 C   0  0  0  1  0  0  0  0  0  0  0  0
   -1.7143   -0.6158   -2.5155 C   0  0  0  1  0  0  0  0  0  0  0  0
   -5.6880   -2.0973   -0.4533 C   0  0  0  1  0  0  0  0  0  0  0  0
   -4.4454   -1.6567    1.5597 C   0  0  0  1  0  0  0  0  0  0  0  0
    0.0021   -0.0041    0.0020 C   0  0  0  1  0  0  0  0  0  0  0  0
   -5.5997   -2.0768    0.9357 C   0  0  0  1  0  0  0  0  0  0  0  0
   -2.0632    0.7738   -2.9829 C   0  0  0  1  0  0  0  0  0  0  0  0
   -5.1758   -4.0904   -2.8044 C   0  0  0  1  0  0  0  0  0  0  0  0
   -4.1113   -3.0043   -4.6885 C   0  0  0  1  0  0  0  0  0  0  0  0
    1.6887    2.2294   -0.0021 C   0  0  0  1  0  0  0  0  0  0  0  0
    2.0788    3.5633    0.0013 C   0  0  0  1  0  0  0  0  0  0  0  0
    2.6516    1.2274   -0.0109 C   0  0  0  1  0  0  0  0  0  0  0  0
   -2.1385    2.5051   -4.6189 C   0  0  0  1  0  0  0  0  0  0  0  0
    3.4208    3.8884   -0.0092 C   0  0  0  1  0  0  0  0  0  0  0  0
    3.9917    1.5600   -0.0214 C   0  0  0  1  0  0  0  0  0  0  0  0
    4.3762    2.8885   -0.0233 C   0  0  0  1  0  0  0  0  0  0  0  0
   -4.0747   -0.9317   -3.1419 H   0  0  0  1  0  0  0  0  0  0  0  0
   -5.7413   -1.5464   -3.0289 H   0  0  0  1  0  0  0  0  0  0  0  0
   -0.6375   -0.7658   -2.5940 H   0  0  0  1  0  0  0  0  0  0  0  0
   -2.2294   -1.3482   -3.1371 H   0  0  0  1  0  0  0  0  0  0  0  0
   -4.3885   -1.6450    2.6381 H   0  0  0  1  0  0  0  0  0  0  0  0
    0.5123   -0.3556   -0.8948 H   0  0  0  1  0  0  0  0  0  0  0  0
    0.5293   -0.3651    0.8851 H   0  0  0  1  0  0  0  0  0  0  0  0
   -6.4443   -2.3928    1.5300 H   0  0  0  1  0  0  0  0  0  0  0  0
   -6.1731   -3.8896   -3.1958 H   0  0  0  1  0  0  0  0  0  0  0  0
   -3.3750   -2.2513   -4.9695 H   0  0  0  1  0  0  0  0  0  0  0  0
   -3.7788   -3.9837   -5.0322 H   0  0  0  1  0  0  0  0  0  0  0  0
   -5.0701   -2.7642   -5.1481 H   0  0  0  1  0  0  0  0  0  0  0  0
   -4.8207   -5.0468   -3.1881 H   0  0  0  1  0  0  0  0  0  0  0  0
   -5.2133   -4.1270   -1.7157 H   0  0  0  1  0  0  0  0  0  0  0  0
   -6.8612   -3.4632   -1.2354 H   0  0  0  1  0  0  0  0  0  0  0  0
    1.3333    4.3446    0.0119 H   0  0  0  1  0  0  0  0  0  0  0  0
    2.3521    0.1897   -0.0091 H   0  0  0  1  0  0  0  0  0  0  0  0
   -3.2159    2.6337   -4.5155 H   0  0  0  1  0  0  0  0  0  0  0  0
   -1.6240    3.2161   -3.9723 H   0  0  0  1  0  0  0  0  0  0  0  0
   -1.8493    2.6811   -5.6550 H   0  0  0  1  0  0  0  0  0  0  0  0
    3.7247    4.9248   -0.0069 H   0  0  0  1  0  0  0  0  0  0  0  0
    4.7406    0.7818   -0.0282 H   0  0  0  1  0  0  0  0  0  0  0  0
    5.4251    3.1458   -0.0319 H   0  0  0  1  0  0  0  0  0  0  0  0
  1 16  1  0  0  0  0
  1 21  1  0  0  0  0
  2 10  4  0  0  0  0
  2 11  4  0  0  0  0
  3 14  1  0  0  0  0
  3 42  1  0  0  0  0
  4 18  1  0  0  0  0
  4 24  1  0  0  0  0
  5 18  2  0  0  0  0
  6 12  1  0  0  0  0
  6 19  1  0  0  0  0
  6 20  1  0  0  0  0
  7  8  4  0  0  0  0
  7  9  4  0  0  0  0
  7 10  4  0  0  0  0
  8 11  4  0  0  0  0
  8 13  1  0  0  0  0
  9 12  1  0  0  0  0
  9 14  4  0  0  0  0
 10 15  4  0  0  0  0
 11 16  1  0  0  0  0
 12 28  1  0  0  0  0
 12 29  1  0  0  0  0
 13 18  1  0  0  0  0
 13 30  1  0  0  0  0
 13 31  1  0  0  0  0
 14 17  4  0  0  0  0
 15 17  4  0  0  0  0
 15 32  1  0  0  0  0
 16 33  1  0  0  0  0
 16 34  1  0  0  0  0
 17 35  1  0  0  0  0
 19 36  1  0  0  0  0
 19 40  1  0  0  0  0
 19 41  1  0  0  0  0
 20 37  1  0  0  0  0
 20 38  1  0  0  0  0
 20 39  1  0  0  0  0
 21 22  4  0  0  0  0
 21 23  4  0  0  0  0
 22 25  4  0  0  0  0
 22 43  1  0  0  0  0
 23 26  4  0  0  0  0
 23 44  1  0  0  0  0
 24 45  1  0  0  0  0
 24 46  1  0  0  0  0
 24 47  1  0  0  0  0
 25 27  4  0  0  0  0
 25 48  1  0  0  0  0
 26 27  4  0  0  0  0
 26 49  1  0  0  0  0
 27 50  1  0  0  0  0
M  END
> <Activity>
0.01

> <Mapped(file=2032.csv.activities,property=Cached(PUBCHEM_COMPOUND_CID))>
100

> <MatchIndices>
155 

> <PUBCHEM_ATOM_DEF_STEREO_COUNT>
0

> <PUBCHEM_ATOM_UDEF_STEREO_COUNT>
0

> <PUBCHEM_BONDANNOTATIONS>
10  15  8
14  17  8
15  17  8
2  10  8
2  11  8
21  22  8
21  23  8
22  25  8
23  26  8
25  27  8
26  27  8
7  10  8
7  8  8
7  9  8
8  11  8
9  14  8

> <PUBCHEM_BOND_DEF_STEREO_COUNT>
0

> <PUBCHEM_BOND_UDEF_STEREO_COUNT>
0

> <PUBCHEM_CACTVS_COMPLEXITY>
483

> <PUBCHEM_CACTVS_HBOND_ACCEPTOR>
6

> <PUBCHEM_CACTVS_HBOND_DONOR>
1

> <PUBCHEM_CACTVS_ROTATABLE_BOND>
8

> <PUBCHEM_CACTVS_SUBSKEYS>
AAADceB6OABAAAAAAAAAAAAAAAAAASAAAAAwYAAAAAAAAEgB9AAAHgQACAAADATF2AayD8MABkiIAqDSCACCCAAkKBAIiBkODMgMJjKmtRuGeSjmwBEouYf///7ugQABAAAYAAACAAIAADAAAAAAAAAAAA==

> <PUBCHEM_CACTVS_TAUTO_COUNT>
3

> <PUBCHEM_CACTVS_TPSA>
88.2

> <PUBCHEM_COMPONENT_COUNT>
1

> <PUBCHEM_COMPOUND_CANONICALIZED>
1

> <PUBCHEM_COMPOUND_CID>
1889549

> <PUBCHEM_COORDINATE_TYPE>
1
5
255

> <PUBCHEM_EXACT_MASS>
385.134779

> <PUBCHEM_HEAVY_ATOM_COUNT>
27

> <PUBCHEM_ISOTOPIC_ATOM_COUNT>
0

> <PUBCHEM_IUPAC_CAS_NAME>
2-[4-[(dimethylamino)methyl]-5-hydroxy-2-[(phenylthio)methyl]-3-benzofuranyl]acetic acid methyl ester

> <PUBCHEM_IUPAC_INCHI>
InChI=1S/C21H23NO4S/c1-22(2)12-16-17(23)9-10-18-21(16)15(11-20(24)25-3)19(26-18)13-27-14-7-5-4-6-8-14/h4-10,23H,11-13H2,1-3H3

> <PUBCHEM_IUPAC_INCHIKEY>
LCPQQYOICPPWPQ-UHFFFAOYSA-N

> <PUBCHEM_IUPAC_NAME>
methyl 2-[4-[(dimethylamino)methyl]-5-hydroxy-2-(phenylsulfanylmethyl)-1-benzofuran-3-yl]acetate

> <PUBCHEM_IUPAC_OPENEYE_NAME>
methyl 2-[4-[(dimethylamino)methyl]-5-hydroxy-2-(phenylsulfanylmethyl)benzofuran-3-yl]acetate

> <PUBCHEM_IUPAC_SYSTEMATIC_NAME>
methyl 2-[4-[(dimethylamino)methyl]-5-oxidanyl-2-(phenylsulfanylmethyl)-1-benzofuran-3-yl]ethanoate

> <PUBCHEM_IUPAC_TRADITIONAL_NAME>
2-[4-[(dimethylamino)methyl]-5-hydroxy-2-[(phenylthio)methyl]benzofuran-3-yl]acetic acid methyl ester

> <PUBCHEM_MOLECULAR_FORMULA>
C21H23NO4S

> <PUBCHEM_MOLECULAR_WEIGHT>
385.47662

> <PUBCHEM_MONOISOTOPIC_WEIGHT>
385.134779

> <PUBCHEM_OPENEYE_CAN_SMILES>
CN(C)CC1=C(C=CC2=C1C(=C(O2)CSC3=CC=CC=C3)CC(=O)OC)O

> <PUBCHEM_OPENEYE_ISO_SMILES>
CN(C)CC1=C(C=CC2=C1C(=C(O2)CSC3=CC=CC=C3)CC(=O)OC)O

> <PUBCHEM_TOTAL_CHARGE>
0

> <PUBCHEM_XLOGP3_AA>
3.6

$$$$
Largest isolated from Written by BCL::WriteToMDL,2933952
JMcorina  04211410293D 1   1.00000     0.00000 
CORINA 3.49 0026  01.06.2011
 41 42  0  0  0  0  0  0  0  0999 V2000
   -0.0173    1.4248    0.0099 O   0  0  0  1  0  0  0  0  0  0  0  0
   -2.1072   -0.1473   -1.2339 N   0  0  0  1  0  0  0  0  0  0  0  0
   -1.4333   -0.5336    0.0129 C   0  0  0  1  0  0  0  0  0  0  0  0
   -3.4910   -0.6398   -1.2589 C   0  0  0  1  0  0  0  0  0  0  0  0
    0.0021   -0.0041    0.0020 C   0  0  0  1  0  0  0  0  0  0  0  0
    1.2402    3.4446    0.0087 C   0  0  0  1  0  0  0  0  0  0  0  0
    1.1850    2.0582    0.0018 C   0  0  0  1  0  0  0  0  0  0  0  0
   -4.1486   -0.2251   -2.5498 C   0  0  0  1  0  0  0  0  0  0  0  0
   -0.0335    4.2499    0.0247 C   0  0  0  1  0  0  0  0  0  0  0  0
    2.4635    4.0859    0.0067 C   0  0  0  1  0  0  0  0  0  0  0  0
    2.3592    1.3197   -0.0129 C   0  0  0  1  0  0  0  0  0  0  0  0
   -4.0796   -1.0501   -3.6569 C   0  0  0  1  0  0  0  0  0  0  0  0
   -4.8257    0.9777   -2.6253 C   0  0  0  1  0  0  0  0  0  0  0  0
    3.6327    3.3474   -0.0022 C   0  0  0  1  0  0  0  0  0  0  0  0
    3.5803    1.9661   -0.0206 C   0  0  0  1  0  0  0  0  0  0  0  0
   -4.6828   -0.6696   -4.8410 C   0  0  0  1  0  0  0  0  0  0  0  0
   -5.4289    1.3582   -3.8095 C   0  0  0  1  0  0  0  0  0  0  0  0
   -0.5113    4.4061    1.4453 C   0  0  0  1  0  0  0  0  0  0  0  0
   -5.3554    0.5356   -4.9181 C   0  0  0  1  0  0  0  0  0  0  0  0
   -0.7338    5.6011    1.9339 C   0  0  0  1  0  0  0  0  0  0  0  0
   -1.9701   -0.1109    0.8621 H   0  0  0  1  0  0  0  0  0  0  0  0
   -1.4190   -1.6203    0.0965 H   0  0  0  1  0  0  0  0  0  0  0  0
   -3.4910   -1.7273   -1.1841 H   0  0  0  1  0  0  0  0  0  0  0  0
   -4.0421   -0.2178   -0.4184 H   0  0  0  1  0  0  0  0  0  0  0  0
    0.5123   -0.3556   -0.8948 H   0  0  0  1  0  0  0  0  0  0  0  0
    0.5293   -0.3651    0.8851 H   0  0  0  1  0  0  0  0  0  0  0  0
   -2.0769    0.8525   -1.3665 H   0  0  0  1  0  0  0  0  0  0  0  0
    0.1533    5.2336   -0.4061 H   0  0  0  1  0  0  0  0  0  0  0  0
   -0.7958    3.7357   -0.5606 H   0  0  0  1  0  0  0  0  0  0  0  0
    2.5070    5.1650    0.0117 H   0  0  0  1  0  0  0  0  0  0  0  0
    2.3189    0.2405   -0.0180 H   0  0  0  1  0  0  0  0  0  0  0  0
   -3.5541   -1.9917   -3.5967 H   0  0  0  1  0  0  0  0  0  0  0  0
   -4.8837    1.6201   -1.7590 H   0  0  0  1  0  0  0  0  0  0  0  0
    4.5882    3.8508   -0.0042 H   0  0  0  1  0  0  0  0  0  0  0  0
    4.4948    1.3916   -0.0317 H   0  0  0  1  0  0  0  0  0  0  0  0
   -4.6282   -1.3138   -5.7062 H   0  0  0  1  0  0  0  0  0  0  0  0
   -5.9582    2.2977   -3.8684 H   0  0  0  1  0  0  0  0  0  0  0  0
   -0.6702    3.5329    2.0607 H   0  0  0  1  0  0  0  0  0  0  0  0
   -5.8264    0.8330   -5.8433 H   0  0  0  1  0  0  0  0  0  0  0  0
   -0.5749    6.4743    1.3185 H   0  0  0  1  0  0  0  0  0  0  0  0
   -1.0763    5.7130    2.9520 H   0  0  0  1  0  0  0  0  0  0  0  0
  1  5  1  0  0  0  0
  1  7  1  0  0  0  0
  2  3  1  0  0  0  0
  2  4  1  0  0  0  0
  2 27  1  0  0  0  0
  3  5  1  0  0  0  0
  3 21  1  0  0  0  0
  3 22  1  0  0  0  0
  4  8  1  0  0  0  0
  4 23  1  0  0  0  0
  4 24  1  0  0  0  0
  5 25  1  0  0  0  0
  5 26  1  0  0  0  0
  6  7  4  0  0  0  0
  6  9  1  0  0  0  0
  6 10  4  0  0  0  0
  7 11  4  0  0  0  0
  8 12  4  0  0  0  0
  8 13  4  0  0  0  0
  9 18  1  0  0  0  0
  9 28  1  0  0  0  0
  9 29  1  0  0  0  0
 10 14  4  0  0  0  0
 10 30  1  0  0  0  0
 11 15  4  0  0  0  0
 11 31  1  0  0  0  0
 12 16  4  0  0  0  0
 12 32  1  0  0  0  0
 13 17  4  0  0  0  0
 13 33  1  0  0  0  0
 14 15  4  0  0  0  0
 14 34  1  0  0  0  0
 15 35  1  0  0  0  0
 16 19  4  0  0  0  0
 16 36  1  0  0  0  0
 17 19  4  0  0  0  0
 17 37  1  0  0  0  0
 18 20  2  0  0  0  0
 18 38  1  0  0  0  0
 19 39  1  0  0  0  0
 20 40  1  0  0  0  0
 20 41  1  0  0  0  0
M  END
> <Activity>
0.01

> <Mapped(file=2032.csv.activities,property=Cached(PUBCHEM_COMPOUND_CID))>
100

> <MatchIndices>
11 

> <PUBCHEM_ATOM_DEF_STEREO_COUNT>
0

> <PUBCHEM_ATOM_UDEF_STEREO_COUNT>
0

> <PUBCHEM_BONDANNOTATIONS>
10  11  8
10  14  8
11  15  8
12  16  8
12  17  8
14  18  8
15  19  8
16  20  8
17  21  8
18  19  8
20  23  8
21  23  8

> <PUBCHEM_BOND_DEF_STEREO_COUNT>
0

> <PUBCHEM_BOND_UDEF_STEREO_COUNT>
0

> <PUBCHEM_CACTVS_COMPLEXITY>
332

> <PUBCHEM_CACTVS_HBOND_ACCEPTOR>
6

> <PUBCHEM_CACTVS_HBOND_DONOR>
3

> <PUBCHEM_CACTVS_ROTATABLE_BOND>
9

> <PUBCHEM_CACTVS_SUBSKEYS>
AAADceB6OAAAAAAAAAAAAAAAAAAAAAAAAAAwYAAAAAAAAAABQAAAHgAQCAAADAThmAYwDoLABgCIAiDSCAKCCAAgIAAIiIBODIgPJiKEsRuHOCjk0BGZqAeQwKAOAAAAAAAIAAAAAAAAABAAAAAAAAAAAA==

> <PUBCHEM_CACTVS_TAUTO_COUNT>
1

> <PUBCHEM_CACTVS_TPSA>
95.9

> <PUBCHEM_COMPONENT_COUNT>
2

> <PUBCHEM_COMPOUND_CANONICALIZED>
1

> <PUBCHEM_COMPOUND_CID>
2933952

> <PUBCHEM_COORDINATE_TYPE>
1
5
255

> <PUBCHEM_EXACT_MASS>
357.157623

> <PUBCHEM_HEAVY_ATOM_COUNT>
26

> <PUBCHEM_ISOTOPIC_ATOM_COUNT>
0

> <PUBCHEM_IUPAC_CAS_NAME>
oxalic acid; N-(phenylmethyl)-2-(2-prop-2-enylphenoxy)ethanamine

> <PUBCHEM_IUPAC_INCHI>
InChI=1S/C18H21NO.C2H2O4/c1-2-8-17-11-6-7-12-18(17)20-14-13-19-15-16-9-4-3-5-10-16;3-1(4)2(5)6/h2-7,9-12,19H,1,8,13-15H2;(H,3,4)(H,5,6)

> <PUBCHEM_IUPAC_INCHIKEY>
JSNFWOJKJIUGSJ-UHFFFAOYSA-N

> <PUBCHEM_IUPAC_NAME>
N-benzyl-2-(2-prop-2-enylphenoxy)ethanamine; oxalic acid

> <PUBCHEM_IUPAC_OPENEYE_NAME>
2-(2-allylphenoxy)-N-benzyl-ethanamine; oxalic acid

> <PUBCHEM_IUPAC_SYSTEMATIC_NAME>
ethanedioic acid; N-(phenylmethyl)-2-(2-prop-2-enylphenoxy)ethanamine

> <PUBCHEM_IUPAC_TRADITIONAL_NAME>
2-(2-allylphenoxy)ethyl-benzyl-amine; oxalic acid

> <PUBCHEM_MOLECULAR_FORMULA>
C20H23NO5

> <PUBCHEM_MOLECULAR_WEIGHT>
357.40032

> <PUBCHEM_MONOISOTOPIC_WEIGHT>
357.157623

> <PUBCHEM_OPENEYE_CAN_SMILES>
C=CCC1=CC=CC=C1OCCNCC2=CC=CC=C2.C(=O)(C(=O)O)O

> <PUBCHEM_OPENEYE_ISO_SMILES>
C=CCC1=CC=CC=C1OCCNCC2=CC=CC=C2.C(=O)(C(=O)O)O

> <PUBCHEM_TOTAL_CHARGE>
0

$$$$
Largest isolated from Written by BCL::WriteToMDL,18273725
JMcorina  04211410293D 1   1.00000     0.00000 
CORINA 3.49 0026  01.06.2011
 38 39  0  0  0  0  0  0  0  0999 V2000
   -2.0186    1.5212    5.6215 Cl  0  0  0  1  0  0  0  0  0  0  0  0
    0.2848    0.8706   -0.1167 S   0  0  0  1  0  0  0  0  0  0  0  0
    0.2081   -0.5059   -0.4612 O   0  0  0  1  0  0  0  0  0  0  0  0
    1.5018    1.6043   -0.1132 O   0  0  0  1  0  0  0  0  0  0  0  0
   -0.7388    1.6679   -1.1457 N   0  0  0  1  0  0  0  0  0  0  0  0
   -0.6187    2.2459    3.4919 N   0  0  0  1  0  0  0  0  0  0  0  0
   -0.6294    3.1197   -1.3086 C   0  0  0  1  0  0  0  0  0  0  0  0
   -1.7539    0.9214   -1.8932 C   0  0  0  1  0  0  0  0  0  0  0  0
   -0.1764    3.4402   -2.7344 C   0  0  0  1  0  0  0  0  0  0  0  0
   -1.9915    3.7662   -1.0487 C   0  0  0  1  0  0  0  0  0  0  0  0
   -1.2133    0.5624   -3.2533 C   0  0  0  1  0  0  0  0  0  0  0  0
   -0.3885    1.0159    1.5050 C   0  0  0  1  0  0  0  0  0  0  0  0
   -0.4293   -0.5653   -3.4098 C   0  0  0  1  0  0  0  0  0  0  0  0
   -1.5063    1.3576   -4.3454 C   0  0  0  1  0  0  0  0  0  0  0  0
   -1.1956    0.0134    2.0225 C   0  0  0  1  0  0  0  0  0  0  0  0
   -0.1186    2.1294    2.2769 C   0  0  0  1  0  0  0  0  0  0  0  0
    0.0666   -0.8946   -4.6574 C   0  0  0  1  0  0  0  0  0  0  0  0
   -1.0104    1.0283   -5.5930 C   0  0  0  1  0  0  0  0  0  0  0  0
   -1.7029    0.1695    3.3024 C   0  0  0  1  0  0  0  0  0  0  0  0
   -0.2220   -0.0965   -5.7486 C   0  0  0  1  0  0  0  0  0  0  0  0
   -1.3897    1.3126    4.0169 C   0  0  0  1  0  0  0  0  0  0  0  0
    0.0998    3.5109   -0.5991 H   0  0  0  1  0  0  0  0  0  0  0  0
   -2.0076    0.0105   -1.3510 H   0  0  0  1  0  0  0  0  0  0  0  0
   -2.6464    1.5366   -2.0077 H   0  0  0  1  0  0  0  0  0  0  0  0
   -2.2817    3.5976   -0.0117 H   0  0  0  1  0  0  0  0  0  0  0  0
   -1.9273    4.8376   -1.2384 H   0  0  0  1  0  0  0  0  0  0  0  0
   -0.9816    3.2096   -3.4319 H   0  0  0  1  0  0  0  0  0  0  0  0
    0.0748    4.4984   -2.8066 H   0  0  0  1  0  0  0  0  0  0  0  0
    0.7002    2.8411   -2.9805 H   0  0  0  1  0  0  0  0  0  0  0  0
   -2.7359    3.3239   -1.7108 H   0  0  0  1  0  0  0  0  0  0  0  0
   -0.2038   -1.1888   -2.5573 H   0  0  0  1  0  0  0  0  0  0  0  0
   -2.1228    2.2360   -4.2240 H   0  0  0  1  0  0  0  0  0  0  0  0
   -1.4228   -0.8682    1.4415 H   0  0  0  1  0  0  0  0  0  0  0  0
    0.5090    2.9140    1.8807 H   0  0  0  1  0  0  0  0  0  0  0  0
    0.6798   -1.7752   -4.7796 H   0  0  0  1  0  0  0  0  0  0  0  0
   -1.2396    1.6494   -6.4464 H   0  0  0  1  0  0  0  0  0  0  0  0
   -2.3350   -0.5909    3.7367 H   0  0  0  1  0  0  0  0  0  0  0  0
    0.1657   -0.3536   -6.7233 H   0  0  0  1  0  0  0  0  0  0  0  0
  1 21  1  0  0  0  0
  2  3  2  0  0  0  0
  2  4  2  0  0  0  0
  2  5  1  0  0  0  0
  2 12  1  0  0  0  0
  5  7  1  0  0  0  0
  5  8  1  0  0  0  0
  6 16  4  0  0  0  0
  6 21  4  0  0  0  0
  7  9  1  0  0  0  0
  7 10  1  0  0  0  0
  7 22  1  0  0  0  0
  8 11  1  0  0  0  0
  8 23  1  0  0  0  0
  8 24  1  0  0  0  0
  9 27  1  0  0  0  0
  9 28  1  0  0  0  0
  9 29  1  0  0  0  0
 10 25  1  0  0  0  0
 10 26  1  0  0  0  0
 10 30  1  0  0  0  0
 11 13  4  0  0  0  0
 11 14  4  0  0  0  0
 12 15  4  0  0  0  0
 12 16  4  0  0  0  0
 13 17  4  0  0  0  0
 13 31  1  0  0  0  0
 14 18  4  0  0  0  0
 14 32  1  0  0  0  0
 15 19  4  0  0  0  0
 15 33  1  0  0  0  0
 16 34  1  0  0  0  0
 17 20  4  0  0  0  0
 17 35  1  0  0  0  0
 18 20  4  0  0  0  0
 18 36  1  0  0  0  0
 19 21  4  0  0  0  0
 19 37  1  0  0  0  0
 20 38  1  0  0  0  0
M  END
> <Activity>
0.01

> <Mapped(file=2032.csv.activities,property=Cached(PUBCHEM_COMPOUND_CID))>
100

> <MatchIndices>
107 

> <PUBCHEM_ATOM_DEF_STEREO_COUNT>
0

> <PUBCHEM_ATOM_UDEF_STEREO_COUNT>
0

> <PUBCHEM_BONDANNOTATIONS>
11  13  8
11  14  8
12  15  8
12  16  8
13  17  8
14  18  8
15  19  8
17  20  8
18  20  8
19  21  8
6  16  8
6  21  8

> <PUBCHEM_BOND_DEF_STEREO_COUNT>
0

> <PUBCHEM_BOND_UDEF_STEREO_COUNT>
0

> <PUBCHEM_CACTVS_COMPLEXITY>
416

> <PUBCHEM_CACTVS_HBOND_ACCEPTOR>
4

> <PUBCHEM_CACTVS_HBOND_DONOR>
0

> <PUBCHEM_CACTVS_ROTATABLE_BOND>
5

> <PUBCHEM_CACTVS_SUBSKEYS>
AAADceBzMABEAAAAAAAAAAAAAAAAAAAAAAA8QAAAAAAAAAABwAAAHAYAQAAADCrBWiQ+gZIIEAKgAjBnRHDCgDAxByAI2Dw4ZpgIIOLBk5GEIAhggADIyAcQgAAOAAAAAAAAAAAAAAAAAAAAAAAAAAAAAA==

> <PUBCHEM_CACTVS_TAUTO_COUNT>
1

> <PUBCHEM_CACTVS_TPSA>
58.6

> <PUBCHEM_COMPONENT_COUNT>
1

> <PUBCHEM_COMPOUND_CANONICALIZED>
1

> <PUBCHEM_COMPOUND_CID>
18273725

> <PUBCHEM_COORDINATE_TYPE>
1
5
255

> <PUBCHEM_EXACT_MASS>
324.069926

> <PUBCHEM_HEAVY_ATOM_COUNT>
21

> <PUBCHEM_ISOTOPIC_ATOM_COUNT>
0

> <PUBCHEM_IUPAC_CAS_NAME>
6-chloro-N-(phenylmethyl)-N-propan-2-yl-3-pyridinesulfonamide

> <PUBCHEM_IUPAC_INCHI>
InChI=1S/C15H17ClN2O2S/c1-12(2)18(11-13-6-4-3-5-7-13)21(19,20)14-8-9-15(16)17-10-14/h3-10,12H,11H2,1-2H3

> <PUBCHEM_IUPAC_INCHIKEY>
ANRHSAZLFCYTMP-UHFFFAOYSA-N

> <PUBCHEM_IUPAC_NAME>
N-benzyl-6-chloro-N-propan-2-ylpyridine-3-sulfonamide

> <PUBCHEM_IUPAC_OPENEYE_NAME>
N-benzyl-6-chloro-N-isopropyl-pyridine-3-sulfonamide

> <PUBCHEM_IUPAC_SYSTEMATIC_NAME>
6-chloranyl-N-(phenylmethyl)-N-propan-2-yl-pyridine-3-sulfonamide

> <PUBCHEM_IUPAC_TRADITIONAL_NAME>
N-benzyl-6-chloro-N-isopropyl-pyridine-3-sulfonamide

> <PUBCHEM_MOLECULAR_FORMULA>
C15H17ClN2O2S

> <PUBCHEM_MOLECULAR_WEIGHT>
324.82568

> <PUBCHEM_MONOISOTOPIC_WEIGHT>
324.069926

> <PUBCHEM_OPENEYE_CAN_SMILES>
CC(C)N(CC1=CC=CC=C1)S(=O)(=O)C2=CN=C(C=C2)Cl

> <PUBCHEM_OPENEYE_ISO_SMILES>
CC(C)N(CC1=CC=CC=C1)S(=O)(=O)C2=CN=C(C=C2)Cl

> <PUBCHEM_TOTAL_CHARGE>
0

> <PUBCHEM_XLOGP3_AA>
3.3

$$$$
Largest isolated from Written by BCL::WriteToMDL,2973523
JMcorina  04211410293D 1   1.00000     0.00000 
CORINA 3.49 0026  01.06.2011
 40 41  0  0  0  0  0  0  0  0999 V2000
    7.0962   14.4732    9.4929 O   0  0  0  1  0  0  0  0  0  0  0  0
    7.3726   17.0568   10.7714 N   0  0  0  1  0  0  0  0  0  0  0  0
    7.2236    8.8422    9.5040 C   0  0  0  1  0  0  0  0  0  0  0  0
    7.1896   10.3488    9.5007 C   0  0  0  1  0  0  0  0  0  0  0  0
    8.0628    8.3562    8.3505 C   0  0  0  1  0  0  0  0  0  0  0  0
    7.8298    8.3487   10.8193 C   0  0  0  1  0  0  0  0  0  0  0  0
    5.8000    8.2996    9.3633 C   0  0  0  1  0  0  0  0  0  0  0  0
    5.9794   11.0116    9.4112 C   0  0  0  1  0  0  0  0  0  0  0  0
    8.3681   11.0660    9.5929 C   0  0  0  1  0  0  0  0  0  0  0  0
    9.1166    7.4911    8.5787 C   0  0  0  1  0  0  0  0  0  0  0  0
    7.7752    8.7709    7.0636 C   0  0  0  1  0  0  0  0  0  0  0  0
    5.9455   12.3926    9.4084 C   0  0  0  1  0  0  0  0  0  0  0  0
    8.3395   12.4471    9.5905 C   0  0  0  1  0  0  0  0  0  0  0  0
    7.1270   13.1145    9.4955 C   0  0  0  1  0  0  0  0  0  0  0  0
    9.8864    7.0453    7.5206 C   0  0  0  1  0  0  0  0  0  0  0  0
    8.5450    8.3251    6.0055 C   0  0  0  1  0  0  0  0  0  0  0  0
    9.6021    7.4642    6.2343 C   0  0  0  1  0  0  0  0  0  0  0  0
    8.3510   15.1507    9.5854 C   0  0  0  1  0  0  0  0  0  0  0  0
    8.1168   16.6625    9.5678 C   0  0  0  1  0  0  0  0  0  0  0  0
    5.3681    8.6512    8.4263 H   0  0  0  1  0  0  0  0  0  0  0  0
    5.8246    7.2099    9.3657 H   0  0  0  1  0  0  0  0  0  0  0  0
    5.1930    8.6512   10.1976 H   0  0  0  1  0  0  0  0  0  0  0  0
    7.2228    8.7003   11.6536 H   0  0  0  1  0  0  0  0  0  0  0  0
    7.8544    7.2590   10.8217 H   0  0  0  1  0  0  0  0  0  0  0  0
    8.8440    8.7353   10.9195 H   0  0  0  1  0  0  0  0  0  0  0  0
    5.0599   10.4492    9.3431 H   0  0  0  1  0  0  0  0  0  0  0  0
    9.3117   10.5460    9.6672 H   0  0  0  1  0  0  0  0  0  0  0  0
    9.3387    7.1638    9.5837 H   0  0  0  1  0  0  0  0  0  0  0  0
    6.9490    9.4430    6.8848 H   0  0  0  1  0  0  0  0  0  0  0  0
    5.0000   12.9099    9.3381 H   0  0  0  1  0  0  0  0  0  0  0  0
    9.2603   13.0069    9.6629 H   0  0  0  1  0  0  0  0  0  0  0  0
   10.7101    6.3700    7.6989 H   0  0  0  1  0  0  0  0  0  0  0  0
    8.3201    8.6489    5.0000 H   0  0  0  1  0  0  0  0  0  0  0  0
   10.2037    7.1162    5.4077 H   0  0  0  1  0  0  0  0  0  0  0  0
    8.8474   14.8707   10.5145 H   0  0  0  1  0  0  0  0  0  0  0  0
    8.9785   14.8703    8.7394 H   0  0  0  1  0  0  0  0  0  0  0  0
    7.5423   16.9309    8.6812 H   0  0  0  1  0  0  0  0  0  0  0  0
    9.0767   17.1787    9.5487 H   0  0  0  1  0  0  0  0  0  0  0  0
    7.2052   18.0518   10.7833 H   0  0  0  1  0  0  0  0  0  0  0  0
    6.5071   16.5436   10.8456 H   0  0  0  1  0  0  0  0  0  0  0  0
  1 14  1  0  0  0  0
  1 18  1  0  0  0  0
  2 19  1  0  0  0  0
  2 39  1  0  0  0  0
  2 40  1  0  0  0  0
  3  4  1  0  0  0  0
  3  5  1  0  0  0  0
  3  6  1  0  0  0  0
  3  7  1  0  0  0  0
  4  8  4  0  0  0  0
  4  9  4  0  0  0  0
  5 10  4  0  0  0  0
  5 11  4  0  0  0  0
  6 23  1  0  0  0  0
  6 24  1  0  0  0  0
  6 25  1  0  0  0  0
  7 20  1  0  0  0  0
  7 21  1  0  0  0  0
  7 22  1  0  0  0  0
  8 12  4  0  0  0  0
  8 26  1  0  0  0  0
  9 13  4  0  0  0  0
  9 27  1  0  0  0  0
 10 15  4  0  0  0  0
 10 28  1  0  0  0  0
 11 16  4  0  0  0  0
 11 29  1  0  0  0  0
 12 14  4  0  0  0  0
 12 30  1  0  0  0  0
 13 14  4  0  0  0  0
 13 31  1  0  0  0  0
 15 17  4  0  0  0  0
 15 32  1  0  0  0  0
 16 17  4  0  0  0  0
 16 33  1  0  0  0  0
 17 34  1  0  0  0  0
 18 19  1  0  0  0  0
 18 35  1  0  0  0  0
 18 36  1  0  0  0  0
 19 37  1  0  0  0  0
 19 38  1  0  0  0  0
M  END
> <Activity>
0.01

> <Mapped(file=2032.csv.activities,property=Cached(PUBCHEM_COMPOUND_CID))>
100

> <MatchIndices>
102 

> <PUBCHEM_ATOM_DEF_STEREO_COUNT>
0

> <PUBCHEM_ATOM_UDEF_STEREO_COUNT>
0

> <PUBCHEM_BONDANNOTATIONS>
10  14  8
11  16  8
12  17  8
13  15  8
14  15  8
16  18  8
17  18  8
5  10  8
5  9  8
6  11  8
6  12  8
9  13  8

> <PUBCHEM_BOND_DEF_STEREO_COUNT>
0

> <PUBCHEM_BOND_UDEF_STEREO_COUNT>
0

> <PUBCHEM_CACTVS_COMPLEXITY>
250

> <PUBCHEM_CACTVS_HBOND_ACCEPTOR>
2

> <PUBCHEM_CACTVS_HBOND_DONOR>
2

> <PUBCHEM_CACTVS_ROTATABLE_BOND>
5

> <PUBCHEM_CACTVS_SUBSKEYS>
AAADceB6IAAEAAAAAAAAAAAAAAAAAAAAAAAwYAAAAAAAAAABQAAAHgAQAAAADgThmAYyBoBABACAAiBCAAACCAAgIAAIiIAGCIgOJiKEMRqDOCCk0BEIqAeAwPAPoAAAAAAAAABAAAAAAAAAAAAAAAAAAA==

> <PUBCHEM_CACTVS_TAUTO_COUNT>
1

> <PUBCHEM_CACTVS_TPSA>
35.2

> <PUBCHEM_COMPONENT_COUNT>
2

> <PUBCHEM_COMPOUND_CANONICALIZED>
1

> <PUBCHEM_COMPOUND_CID>
2973523

> <PUBCHEM_COORDINATE_TYPE>
1
5
255

> <PUBCHEM_EXACT_MASS>
291.138992

> <PUBCHEM_HEAVY_ATOM_COUNT>
20

> <PUBCHEM_ISOTOPIC_ATOM_COUNT>
0

> <PUBCHEM_IUPAC_CAS_NAME>
2-[4-(2-phenylpropan-2-yl)phenoxy]ethanamine hydrochloride

> <PUBCHEM_IUPAC_INCHI>
InChI=1S/C17H21NO.ClH/c1-17(2,14-6-4-3-5-7-14)15-8-10-16(11-9-15)19-13-12-18;/h3-11H,12-13,18H2,1-2H3;1H

> <PUBCHEM_IUPAC_INCHIKEY>
HTTQZYJSFAMGOK-UHFFFAOYSA-N

> <PUBCHEM_IUPAC_NAME>
2-[4-(2-phenylpropan-2-yl)phenoxy]ethanamine hydrochloride

> <PUBCHEM_IUPAC_OPENEYE_NAME>
2-[4-(1-methyl-1-phenyl-ethyl)phenoxy]ethanamine hydrochloride

> <PUBCHEM_IUPAC_SYSTEMATIC_NAME>
2-[4-(2-phenylpropan-2-yl)phenoxy]ethanamine hydrochloride

> <PUBCHEM_IUPAC_TRADITIONAL_NAME>
2-(4-cumylphenoxy)ethylamine hydrochloride

> <PUBCHEM_MOLECULAR_FORMULA>
C17H22ClNO

> <PUBCHEM_MOLECULAR_WEIGHT>
291.81568

> <PUBCHEM_MONOISOTOPIC_WEIGHT>
291.138992

> <PUBCHEM_OPENEYE_CAN_SMILES>
CC(C)(C1=CC=CC=C1)C2=CC=C(C=C2)OCCN.Cl

> <PUBCHEM_OPENEYE_ISO_SMILES>
CC(C)(C1=CC=CC=C1)C2=CC=C(C=C2)OCCN.Cl

> <PUBCHEM_TOTAL_CHARGE>
0

$$$$
Largest isolated from Written by BCL::WriteToMDL,1288666
JMcorina  04211410293D 1   1.00000     0.00000 
CORINA 3.49 0026  01.06.2011
 46 48  0  0  0  0  0  0  0  0999 V2000
   -0.0372    1.3034   -0.1032 S   0  0  0  1  0  0  0  0  0  0  0  0
   -2.3217    0.5406    4.3981 O   0  0  0  1  0  0  0  0  0  0  0  0
    6.2950    4.7542    0.7198 O   0  0  0  1  0  0  0  0  0  0  0  0
    7.6022    3.2628   -0.3750 O   0  0  0  1  0  0  0  0  0  0  0  0
   -0.7026    1.8848   -1.2160 O   0  0  0  1  0  0  0  0  0  0  0  0
    0.1278   -0.0988    0.0579 O   0  0  0  1  0  0  0  0  0  0  0  0
    1.4828    1.9598   -0.0720 N   0  0  0  1  0  0  0  0  0  0  0  0
   -0.8811    1.8735    1.3346 C   0  0  0  1  0  0  0  0  0  0  0  0
   -1.1569    3.2198    1.4853 C   0  0  0  1  0  0  0  0  0  0  0  0
    2.4099    1.6097    1.0070 C   0  0  0  1  0  0  0  0  0  0  0  0
    3.8123    1.9901    0.6076 C   0  0  0  1  0  0  0  0  0  0  0  0
   -1.2717    0.9740    2.3079 C   0  0  0  1  0  0  0  0  0  0  0  0
   -2.2067    2.7759    3.5911 C   0  0  0  1  0  0  0  0  0  0  0  0
   -1.9361    1.4235    3.4396 C   0  0  0  1  0  0  0  0  0  0  0  0
   -1.8191    3.6704    2.6126 C   0  0  0  1  0  0  0  0  0  0  0  0
    4.2984    3.2483    0.9103 C   0  0  0  1  0  0  0  0  0  0  0  0
    5.5875    3.6001    0.5444 C   0  0  0  1  0  0  0  0  0  0  0  0
   -0.7347    4.1980    0.4195 C   0  0  0  1  0  0  0  0  0  0  0  0
    4.6105    1.0795   -0.0594 C   0  0  0  1  0  0  0  0  0  0  0  0
    6.3911    2.6832   -0.1286 C   0  0  0  1  0  0  0  0  0  0  0  0
    5.8975    1.4238   -0.4283 C   0  0  0  1  0  0  0  0  0  0  0  0
   -2.9283    3.2677    4.8193 C   0  0  0  1  0  0  0  0  0  0  0  0
    7.6738    4.3952    0.5115 C   0  0  0  1  0  0  0  0  0  0  0  0
   -2.0103   -0.8361    4.1752 C   0  0  0  1  0  0  0  0  0  0  0  0
   -2.5187   -1.6710    5.3522 C   0  0  0  1  0  0  0  0  0  0  0  0
    2.1319    2.1473    1.9136 H   0  0  0  1  0  0  0  0  0  0  0  0
    2.3633    0.5366    1.1922 H   0  0  0  1  0  0  0  0  0  0  0  0
    1.7594    2.5760   -0.7682 H   0  0  0  1  0  0  0  0  0  0  0  0
   -1.0603   -0.0782    2.1875 H   0  0  0  1  0  0  0  0  0  0  0  0
   -2.0334    4.7226    2.7279 H   0  0  0  1  0  0  0  0  0  0  0  0
    3.6724    3.9579    1.4310 H   0  0  0  1  0  0  0  0  0  0  0  0
   -1.4914    4.2302   -0.3644 H   0  0  0  1  0  0  0  0  0  0  0  0
   -0.6246    5.1893    0.8591 H   0  0  0  1  0  0  0  0  0  0  0  0
    0.2172    3.8820   -0.0072 H   0  0  0  1  0  0  0  0  0  0  0  0
    4.2274    0.0973   -0.2939 H   0  0  0  1  0  0  0  0  0  0  0  0
    6.5185    0.7108   -0.9502 H   0  0  0  1  0  0  0  0  0  0  0  0
   -2.2016    3.5128    5.5939 H   0  0  0  1  0  0  0  0  0  0  0  0
   -3.5067    4.1570    4.5692 H   0  0  0  1  0  0  0  0  0  0  0  0
   -3.5984    2.4889    5.1832 H   0  0  0  1  0  0  0  0  0  0  0  0
    8.2164    5.2156    0.0417 H   0  0  0  1  0  0  0  0  0  0  0  0
    8.1431    4.1145    1.4543 H   0  0  0  1  0  0  0  0  0  0  0  0
   -2.4904   -1.1730    3.2565 H   0  0  0  1  0  0  0  0  0  0  0  0
   -0.9305   -0.9544    4.0854 H   0  0  0  1  0  0  0  0  0  0  0  0
   -2.0387   -1.3341    6.2709 H   0  0  0  1  0  0  0  0  0  0  0  0
   -3.5986   -1.5527    5.4420 H   0  0  0  1  0  0  0  0  0  0  0  0
   -2.2812   -2.7212    5.1821 H   0  0  0  1  0  0  0  0  0  0  0  0
  1  5  2  0  0  0  0
  1  6  2  0  0  0  0
  1  7  1  0  0  0  0
  1  8  1  0  0  0  0
  2 14  1  0  0  0  0
  2 24  1  0  0  0  0
  3 17  1  0  0  0  0
  3 23  1  0  0  0  0
  4 20  1  0  0  0  0
  4 23  1  0  0  0  0
  7 10  1  0  0  0  0
  7 28  1  0  0  0  0
  8  9  4  0  0  0  0
  8 12  4  0  0  0  0
  9 15  4  0  0  0  0
  9 18  1  0  0  0  0
 10 11  1  0  0  0  0
 10 26  1  0  0  0  0
 10 27  1  0  0  0  0
 11 16  4  0  0  0  0
 11 19  4  0  0  0  0
 12 14  4  0  0  0  0
 12 29  1  0  0  0  0
 13 14  4  0  0  0  0
 13 15  4  0  0  0  0
 13 22  1  0  0  0  0
 15 30  1  0  0  0  0
 16 17  4  0  0  0  0
 16 31  1  0  0  0  0
 17 20  4  0  0  0  0
 18 32  1  0  0  0  0
 18 33  1  0  0  0  0
 18 34  1  0  0  0  0
 19 21  4  0  0  0  0
 19 35  1  0  0  0  0
 20 21  4  0  0  0  0
 21 36  1  0  0  0  0
 22 37  1  0  0  0  0
 22 38  1  0  0  0  0
 22 39  1  0  0  0  0
 23 40  1  0  0  0  0
 23 41  1  0  0  0  0
 24 25  1  0  0  0  0
 24 42  1  0  0  0  0
 24 43  1  0  0  0  0
 25 44  1  0  0  0  0
 25 45  1  0  0  0  0
 25 46  1  0  0  0  0
M  END
> <Activity>
0.01

> <Mapped(file=2032.csv.activities,property=Cached(PUBCHEM_COMPOUND_CID))>
100

> <MatchIndices>
183 

> <PUBCHEM_ATOM_DEF_STEREO_COUNT>
0

> <PUBCHEM_ATOM_UDEF_STEREO_COUNT>
0

> <PUBCHEM_BONDANNOTATIONS>
11  16  8
11  19  8
12  14  8
13  14  8
13  15  8
16  17  8
17  20  8
19  21  8
20  21  8
8  12  8
8  9  8
9  15  8

> <PUBCHEM_BOND_DEF_STEREO_COUNT>
0

> <PUBCHEM_BOND_UDEF_STEREO_COUNT>
0

> <PUBCHEM_CACTVS_COMPLEXITY>
534

> <PUBCHEM_CACTVS_HBOND_ACCEPTOR>
6

> <PUBCHEM_CACTVS_HBOND_DONOR>
1

> <PUBCHEM_CACTVS_ROTATABLE_BOND>
6

> <PUBCHEM_CACTVS_SUBSKEYS>
AAADceB6OABAAAAAAAAAAAAAAAAAASAAAAAwYAAAAAAAAEgBQAAAHgQQQAAADATh2AcyD4BABAKAAiBCAHDCCBAgIAAIiJgGjIgdJiKEsRuiOCLkwBEOqAew0HAOMAADBAAMQABgAAYIABiAAAAAAAAAAA==

> <PUBCHEM_CACTVS_TAUTO_COUNT>
1

> <PUBCHEM_CACTVS_TPSA>
82.2

> <PUBCHEM_COMPONENT_COUNT>
1

> <PUBCHEM_COMPOUND_CANONICALIZED>
1

> <PUBCHEM_COMPOUND_CID>
1288666

> <PUBCHEM_COORDINATE_TYPE>
1
5
255

> <PUBCHEM_EXACT_MASS>
363.114044

> <PUBCHEM_HEAVY_ATOM_COUNT>
25

> <PUBCHEM_ISOTOPIC_ATOM_COUNT>
0

> <PUBCHEM_IUPAC_CAS_NAME>
N-(1,3-benzodioxol-5-ylmethyl)-5-ethoxy-2,4-dimethylbenzenesulfonamide

> <PUBCHEM_IUPAC_INCHI>
InChI=1S/C18H21NO5S/c1-4-22-16-9-18(13(3)7-12(16)2)25(20,21)19-10-14-5-6-15-17(8-14)24-11-23-15/h5-9,19H,4,10-11H2,1-3H3

> <PUBCHEM_IUPAC_INCHIKEY>
UOBVKGSGJOYEBR-UHFFFAOYSA-N

> <PUBCHEM_IUPAC_NAME>
N-(1,3-benzodioxol-5-ylmethyl)-5-ethoxy-2,4-dimethylbenzenesulfonamide

> <PUBCHEM_IUPAC_OPENEYE_NAME>
N-(1,3-benzodioxol-5-ylmethyl)-5-ethoxy-2,4-dimethyl-benzenesulfonamide

> <PUBCHEM_IUPAC_SYSTEMATIC_NAME>
N-(1,3-benzodioxol-5-ylmethyl)-5-ethoxy-2,4-dimethyl-benzenesulfonamide

> <PUBCHEM_IUPAC_TRADITIONAL_NAME>
5-ethoxy-2,4-dimethyl-N-piperonyl-benzenesulfonamide

> <PUBCHEM_MOLECULAR_FORMULA>
C18H21NO5S

> <PUBCHEM_MOLECULAR_WEIGHT>
363.42804

> <PUBCHEM_MONOISOTOPIC_WEIGHT>
363.114044

> <PUBCHEM_OPENEYE_CAN_SMILES>
CCOC1=CC(=C(C=C1C)C)S(=O)(=O)NCC2=CC3=C(C=C2)OCO3

> <PUBCHEM_OPENEYE_ISO_SMILES>
CCOC1=CC(=C(C=C1C)C)S(=O)(=O)NCC2=CC3=C(C=C2)OCO3

> <PUBCHEM_TOTAL_CHARGE>
0

> <PUBCHEM_XLOGP3_AA>
3.3

$$$$
Largest isolated from Written by BCL::WriteToMDL,1125097
JMcorina  04211410293D 1   1.00000     0.00000 
CORINA 3.49 0026  01.06.2011
 35 36  0  0  0  0  0  0  0  0999 V2000
   -2.8350   -0.0166    4.5809 Br  0  0  0  1  0  0  0  0  0  0  0  0
   -0.0172    1.4168    0.0098 S   0  0  0  1  0  0  0  0  0  0  0  0
    0.0021   -0.0041    0.0020 O   0  0  0  1  0  0  0  0  0  0  0  0
    1.1617    2.2101    0.0028 O   0  0  0  1  0  0  0  0  0  0  0  0
   -0.6598    4.1870    0.8658 O   0  0  0  1  0  0  0  0  0  0  0  0
   -0.9002    1.8797   -1.3124 N   0  0  0  1  0  0  0  0  0  0  0  0
   -2.4874    2.0057   -2.7690 N   0  0  0  1  0  0  0  0  0  0  0  0
   -2.1095    1.4012   -1.6759 C   0  0  0  1  0  0  0  0  0  0  0  0
   -0.9297    1.8941    1.4396 C   0  0  0  1  0  0  0  0  0  0  0  0
   -0.5433    2.8232   -2.2377 C   0  0  0  1  0  0  0  0  0  0  0  0
   -2.8926    0.3435   -0.9416 C   0  0  0  1  0  0  0  0  0  0  0  0
   -1.5438    2.8851   -3.1369 C   0  0  0  1  0  0  0  0  0  0  0  0
   -1.1488    3.2375    1.7065 C   0  0  0  1  0  0  0  0  0  0  0  0
   -1.4321    0.9304    2.2926 C   0  0  0  1  0  0  0  0  0  0  0  0
   -3.7996    1.0086    0.0957 C   0  0  0  1  0  0  0  0  0  0  0  0
   -1.5941    3.7841   -4.3453 C   0  0  0  1  0  0  0  0  0  0  0  0
   -1.8676    3.6107    2.8330 C   0  0  0  1  0  0  0  0  0  0  0  0
   -2.1485    1.3046    3.4152 C   0  0  0  1  0  0  0  0  0  0  0  0
   -2.3634    2.6444    3.6863 C   0  0  0  1  0  0  0  0  0  0  0  0
   -0.9238    5.5503    1.2031 C   0  0  0  1  0  0  0  0  0  0  0  0
    0.3659    3.4061   -2.2451 H   0  0  0  1  0  0  0  0  0  0  0  0
   -3.5018   -0.2160   -1.6514 H   0  0  0  1  0  0  0  0  0  0  0  0
   -2.2036   -0.3357   -0.4395 H   0  0  0  1  0  0  0  0  0  0  0  0
   -1.2658   -0.1158    2.0826 H   0  0  0  1  0  0  0  0  0  0  0  0
   -4.3660    0.2437    0.6269 H   0  0  0  1  0  0  0  0  0  0  0  0
   -3.1904    1.5682    0.8056 H   0  0  0  1  0  0  0  0  0  0  0  0
   -4.4886    1.6879   -0.4063 H   0  0  0  1  0  0  0  0  0  0  0  0
   -2.0657    4.7291   -4.0758 H   0  0  0  1  0  0  0  0  0  0  0  0
   -0.5810    3.9720   -4.7008 H   0  0  0  1  0  0  0  0  0  0  0  0
   -2.1720    3.3015   -5.1335 H   0  0  0  1  0  0  0  0  0  0  0  0
   -2.0391    4.6562    3.0428 H   0  0  0  1  0  0  0  0  0  0  0  0
   -2.9226    2.9345    4.5634 H   0  0  0  1  0  0  0  0  0  0  0  0
   -2.0009    5.7145    1.2355 H   0  0  0  1  0  0  0  0  0  0  0  0
   -0.4927    5.7731    2.1791 H   0  0  0  1  0  0  0  0  0  0  0  0
   -0.4792    6.2030    0.4518 H   0  0  0  1  0  0  0  0  0  0  0  0
  1 18  1  0  0  0  0
  2  3  2  0  0  0  0
  2  4  2  0  0  0  0
  2  6  1  0  0  0  0
  2  9  1  0  0  0  0
  5 13  1  0  0  0  0
  5 20  1  0  0  0  0
  6  8  4  0  0  0  0
  6 10  4  0  0  0  0
  7  8  4  0  0  0  0
  7 12  4  0  0  0  0
  8 11  1  0  0  0  0
  9 13  4  0  0  0  0
  9 14  4  0  0  0  0
 10 12  4  0  0  0  0
 10 21  1  0  0  0  0
 11 15  1  0  0  0  0
 11 22  1  0  0  0  0
 11 23  1  0  0  0  0
 12 16  1  0  0  0  0
 13 17  4  0  0  0  0
 14 18  4  0  0  0  0
 14 24  1  0  0  0  0
 15 25  1  0  0  0  0
 15 26  1  0  0  0  0
 15 27  1  0  0  0  0
 16 28  1  0  0  0  0
 16 29  1  0  0  0  0
 16 30  1  0  0  0  0
 17 19  4  0  0  0  0
 17 31  1  0  0  0  0
 18 19  4  0  0  0  0
 19 32  1  0  0  0  0
 20 33  1  0  0  0  0
 20 34  1  0  0  0  0
 20 35  1  0  0  0  0
M  END
> <Activity>
0.01

> <Mapped(file=2032.csv.activities,property=Cached(PUBCHEM_COMPOUND_CID))>
100

> <MatchIndices>
23 

> <PUBCHEM_ATOM_DEF_STEREO_COUNT>
0

> <PUBCHEM_ATOM_UDEF_STEREO_COUNT>
0

> <PUBCHEM_BONDANNOTATIONS>
10  12  8
13  17  8
14  18  8
17  19  8
18  19  8
6  10  8
6  8  8
7  12  8
7  8  8
9  13  8
9  14  8

> <PUBCHEM_BOND_DEF_STEREO_COUNT>
0

> <PUBCHEM_BOND_UDEF_STEREO_COUNT>
0

> <PUBCHEM_CACTVS_COMPLEXITY>
426

> <PUBCHEM_CACTVS_HBOND_ACCEPTOR>
3

> <PUBCHEM_CACTVS_HBOND_DONOR>
0

> <PUBCHEM_CACTVS_ROTATABLE_BOND>
4

> <PUBCHEM_CACTVS_SUBSKEYS>
AAADccBzMABAEAAAAAAAAAAAAAAAAWAAAAAwAAAAAAAAAAABwAAAHgRAQAABqAzB1wY/l5YIFAKgATZnZHBCiD0xMqQJ2Bo+eKiMbiLEORqUMCAswBPIqjeAQAAAABAAAAgAIAAAIAAAEABAAAAAAAAAAA==

> <PUBCHEM_CACTVS_TAUTO_COUNT>
2

> <PUBCHEM_CACTVS_TPSA>
69.6

> <PUBCHEM_COMPONENT_COUNT>
1

> <PUBCHEM_COMPOUND_CANONICALIZED>
1

> <PUBCHEM_COMPOUND_CID>
1125097

> <PUBCHEM_COORDINATE_TYPE>
1
5
255

> <PUBCHEM_EXACT_MASS>
357.998675

> <PUBCHEM_HEAVY_ATOM_COUNT>
20

> <PUBCHEM_ISOTOPIC_ATOM_COUNT>
0

> <PUBCHEM_IUPAC_CAS_NAME>
1-(5-bromo-2-methoxyphenyl)sulfonyl-2-ethyl-4-methylimidazole

> <PUBCHEM_IUPAC_INCHI>
InChI=1S/C13H15BrN2O3S/c1-4-13-15-9(2)8-16(13)20(17,18)12-7-10(14)5-6-11(12)19-3/h5-8H,4H2,1-3H3

> <PUBCHEM_IUPAC_INCHIKEY>
SDMMYBHYEFOUHE-UHFFFAOYSA-N

> <PUBCHEM_IUPAC_NAME>
1-(5-bromo-2-methoxyphenyl)sulfonyl-2-ethyl-4-methylimidazole

> <PUBCHEM_IUPAC_OPENEYE_NAME>
1-(5-bromo-2-methoxy-phenyl)sulfonyl-2-ethyl-4-methyl-imidazole

> <PUBCHEM_IUPAC_SYSTEMATIC_NAME>
1-(5-bromanyl-2-methoxy-phenyl)sulfonyl-2-ethyl-4-methyl-imidazole

> <PUBCHEM_IUPAC_TRADITIONAL_NAME>
1-(5-bromo-2-methoxy-phenyl)sulfonyl-2-ethyl-4-methyl-imidazole

> <PUBCHEM_MOLECULAR_FORMULA>
C13H15BrN2O3S

> <PUBCHEM_MOLECULAR_WEIGHT>
359.2388

> <PUBCHEM_MONOISOTOPIC_WEIGHT>
357.998675

> <PUBCHEM_OPENEYE_CAN_SMILES>
CCC1=NC(=CN1S(=O)(=O)C2=C(C=CC(=C2)Br)OC)C

> <PUBCHEM_OPENEYE_ISO_SMILES>
CCC1=NC(=CN1S(=O)(=O)C2=C(C=CC(=C2)Br)OC)C

> <PUBCHEM_TOTAL_CHARGE>
0

> <PUBCHEM_XLOGP3_AA>
3.1

$$$$
Largest isolated from Written by BCL::WriteToMDL,2809964
JMcorina  04211410293D 1   1.00000     0.00000 
CORINA 3.49 0026  01.06.2011
 47 48  0  0  0  0  0  0  0  0999 V2000
   -0.0173    1.4248    0.0099 O   0  0  0  1  0  0  0  0  0  0  0  0
   -2.0889   -0.1578   -1.2000 O   0  0  0  1  0  0  0  0  0  0  0  0
   -8.1451   -5.8417    0.2807 O   0  0  0  1  0  0  0  0  0  0  0  0
    0.0383    5.4521    0.0305 O   0  5  0  1  0  0  0  0  0  0  0  0
   -1.0891    3.6690    0.0314 O   0  0  0  1  0  0  0  0  0  0  0  0
   -2.7914   -2.5675    0.1407 N   0  0  0  1  0  0  0  0  0  0  0  0
   -0.0107    4.2351    0.0245 N   0  3  0  1  0  0  0  0  0  0  0  0
   -1.4333   -0.5336    0.0129 C   0  0  0  1  0  0  0  0  0  0  0  0
   -1.4133   -2.0590    0.1302 C   0  0  0  1  0  0  0  0  0  0  0  0
    0.0021   -0.0041    0.0020 C   0  0  0  1  0  0  0  0  0  0  0  0
   -2.8114   -4.0321    0.2525 C   0  0  0  1  0  0  0  0  0  0  0  0
   -4.2385   -4.5159    0.2600 C   0  0  0  1  0  0  0  0  0  0  0  0
    1.1850    2.0582    0.0018 C   0  0  0  1  0  0  0  0  0  0  0  0
   -4.8674   -4.8291   -0.9309 C   0  0  0  1  0  0  0  0  0  0  0  0
   -4.9150   -4.6514    1.4583 C   0  0  0  1  0  0  0  0  0  0  0  0
    1.2402    3.4442    0.0087 C   0  0  0  1  0  0  0  0  0  0  0  0
    2.3596    1.3195   -0.0077 C   0  0  0  1  0  0  0  0  0  0  0  0
    3.6326    3.3475   -0.0147 C   0  0  0  1  0  0  0  0  0  0  0  0
    2.4638    4.0857    0.0004 C   0  0  0  1  0  0  0  0  0  0  0  0
    3.5803    1.9657   -0.0159 C   0  0  0  1  0  0  0  0  0  0  0  0
   -6.1755   -5.2732   -0.9266 C   0  0  0  1  0  0  0  0  0  0  0  0
   -6.2232   -5.0952    1.4679 C   0  0  0  1  0  0  0  0  0  0  0  0
   -6.8582   -5.4050    0.2739 C   0  0  0  1  0  0  0  0  0  0  0  0
    4.9659    4.0499   -0.0238 C   0  0  0  1  0  0  0  0  0  0  0  0
   -8.7856   -5.9531    1.5533 C   0  0  0  1  0  0  0  0  0  0  0  0
   -1.9701   -0.1109    0.8621 H   0  0  0  1  0  0  0  0  0  0  0  0
   -0.9132   -2.3457    1.0553 H   0  0  0  1  0  0  0  0  0  0  0  0
   -0.8764   -2.4817   -0.7190 H   0  0  0  1  0  0  0  0  0  0  0  0
    0.5123   -0.3556   -0.8948 H   0  0  0  1  0  0  0  0  0  0  0  0
    0.5293   -0.3651    0.8851 H   0  0  0  1  0  0  0  0  0  0  0  0
   -3.3286   -2.1410    0.8807 H   0  0  0  1  0  0  0  0  0  0  0  0
   -2.2842   -4.4685   -0.5959 H   0  0  0  1  0  0  0  0  0  0  0  0
   -2.3210   -4.3325    1.1785 H   0  0  0  1  0  0  0  0  0  0  0  0
   -1.6646   -0.4999   -1.9987 H   0  0  0  1  0  0  0  0  0  0  0  0
   -4.3356   -4.7260   -1.8652 H   0  0  0  1  0  0  0  0  0  0  0  0
   -4.4202   -4.4104    2.3875 H   0  0  0  1  0  0  0  0  0  0  0  0
    2.3193    0.2403   -0.0082 H   0  0  0  1  0  0  0  0  0  0  0  0
    2.5073    5.1649    0.0055 H   0  0  0  1  0  0  0  0  0  0  0  0
    4.4948    1.3912   -0.0229 H   0  0  0  1  0  0  0  0  0  0  0  0
   -6.6664   -5.5174   -1.8571 H   0  0  0  1  0  0  0  0  0  0  0  0
   -6.7511   -5.2012    2.4041 H   0  0  0  1  0  0  0  0  0  0  0  0
    5.2972    4.2137    1.0017 H   0  0  0  1  0  0  0  0  0  0  0  0
    5.6971    3.4346   -0.5479 H   0  0  0  1  0  0  0  0  0  0  0  0
    4.8677    5.0094   -0.5315 H   0  0  0  1  0  0  0  0  0  0  0  0
   -9.8059   -6.3113    1.4163 H   0  0  0  1  0  0  0  0  0  0  0  0
   -8.2343   -6.6566    2.1772 H   0  0  0  1  0  0  0  0  0  0  0  0
   -8.8052   -4.9765    2.0369 H   0  0  0  1  0  0  0  0  0  0  0  0
  1 10  1  0  0  0  0
  1 13  1  0  0  0  0
  2  8  1  0  0  0  0
  2 34  1  0  0  0  0
  3 23  1  0  0  0  0
  3 25  1  0  0  0  0
  4  7  1  0  0  0  0
  5  7  2  0  0  0  0
  6  9  1  0  0  0  0
  6 11  1  0  0  0  0
  6 31  1  0  0  0  0
  7 16  1  0  0  0  0
  8  9  1  0  0  0  0
  8 10  1  0  0  0  0
  8 26  1  0  0  0  0
  9 27  1  0  0  0  0
  9 28  1  0  0  0  0
 10 29  1  0  0  0  0
 10 30  1  0  0  0  0
 11 12  1  0  0  0  0
 11 32  1  0  0  0  0
 11 33  1  0  0  0  0
 12 14  4  0  0  0  0
 12 15  4  0  0  0  0
 13 16  4  0  0  0  0
 13 17  4  0  0  0  0
 14 21  4  0  0  0  0
 14 35  1  0  0  0  0
 15 22  4  0  0  0  0
 15 36  1  0  0  0  0
 16 19  4  0  0  0  0
 17 20  4  0  0  0  0
 17 37  1  0  0  0  0
 18 19  4  0  0  0  0
 18 20  4  0  0  0  0
 18 24  1  0  0  0  0
 19 38  1  0  0  0  0
 20 39  1  0  0  0  0
 21 23  4  0  0  0  0
 21 40  1  0  0  0  0
 22 23  4  0  0  0  0
 22 41  1  0  0  0  0
 24 42  1  0  0  0  0
 24 43  1  0  0  0  0
 24 44  1  0  0  0  0
 25 45  1  0  0  0  0
 25 46  1  0  0  0  0
 25 47  1  0  0  0  0
M  END
> <Activity>
0.01

> <Mapped(file=2032.csv.activities,property=Cached(PUBCHEM_COMPOUND_CID))>
100

> <MatchIndices>
27 

> <PUBCHEM_ATOM_DEF_STEREO_COUNT>
0

> <PUBCHEM_ATOM_UDEF_STEREO_COUNT>
1

> <PUBCHEM_BONDANNOTATIONS>
12  14  8
12  15  8
13  16  8
13  17  8
14  21  8
15  22  8
16  19  8
17  20  8
18  19  8
18  20  8
21  23  8
22  23  8
8  26  3

> <PUBCHEM_BOND_DEF_STEREO_COUNT>
0

> <PUBCHEM_BOND_UDEF_STEREO_COUNT>
0

> <PUBCHEM_CACTVS_COMPLEXITY>
395

> <PUBCHEM_CACTVS_HBOND_ACCEPTOR>
6

> <PUBCHEM_CACTVS_HBOND_DONOR>
2

> <PUBCHEM_CACTVS_ROTATABLE_BOND>
8

> <PUBCHEM_CACTVS_SUBSKEYS>
AAADceB7OAAAAAAAAAAAAAAAAAAAAAAAAAAwYAAAAAAAAAABQAAAHgAUCAAADBzhmAYyxoLQRgCBAiRCQwCCCAAgIgAoiIAPbIoPNiKEsZuHOCjm0FGb6AeQ0AIOIAAAQAAAEABAAACAAAAgAAAAAAAAAA==

> <PUBCHEM_CACTVS_TAUTO_COUNT>
1

> <PUBCHEM_CACTVS_TPSA>
96.5

> <PUBCHEM_COMPONENT_COUNT>
1

> <PUBCHEM_COMPOUND_CANONICALIZED>
1

> <PUBCHEM_COMPOUND_CID>
2809964

> <PUBCHEM_COORDINATE_TYPE>
1
5
255

> <PUBCHEM_EXACT_MASS>
346.152872

> <PUBCHEM_HEAVY_ATOM_COUNT>
25

> <PUBCHEM_ISOTOPIC_ATOM_COUNT>
0

> <PUBCHEM_IUPAC_CAS_NAME>
1-[(4-methoxyphenyl)methylamino]-3-(4-methyl-2-nitrophenoxy)-2-propanol

> <PUBCHEM_IUPAC_INCHI>
InChI=1S/C18H22N2O5/c1-13-3-8-18(17(9-13)20(22)23)25-12-15(21)11-19-10-14-4-6-16(24-2)7-5-14/h3-9,15,19,21H,10-12H2,1-2H3

> <PUBCHEM_IUPAC_INCHIKEY>
GNPWKXORUUWJHX-UHFFFAOYSA-N

> <PUBCHEM_IUPAC_NAME>
1-[(4-methoxyphenyl)methylamino]-3-(4-methyl-2-nitrophenoxy)propan-2-ol

> <PUBCHEM_IUPAC_OPENEYE_NAME>
1-[(4-methoxyphenyl)methylamino]-3-(4-methyl-2-nitro-phenoxy)propan-2-ol

> <PUBCHEM_IUPAC_SYSTEMATIC_NAME>
1-[(4-methoxyphenyl)methylamino]-3-(4-methyl-2-nitro-phenoxy)propan-2-ol

> <PUBCHEM_IUPAC_TRADITIONAL_NAME>
1-(4-methyl-2-nitro-phenoxy)-3-(p-anisylamino)propan-2-ol

> <PUBCHEM_MOLECULAR_FORMULA>
C18H22N2O5

> <PUBCHEM_MOLECULAR_WEIGHT>
346.37768

> <PUBCHEM_MONOISOTOPIC_WEIGHT>
346.152872

> <PUBCHEM_OPENEYE_CAN_SMILES>
CC1=CC(=C(C=C1)OCC(CNCC2=CC=C(C=C2)OC)O)[N+](=O)[O-]

> <PUBCHEM_OPENEYE_ISO_SMILES>
CC1=CC(=C(C=C1)OCC(CNCC2=CC=C(C=C2)OC)O)[N+](=O)[O-]

> <PUBCHEM_TOTAL_CHARGE>
0

> <PUBCHEM_XLOGP3_AA>
2.5

$$$$
Largest isolated from Written by BCL::WriteToMDL,16248173
JMcorina  04211410293D 1   1.00000     0.00000 
CORINA 3.49 0026  01.06.2011
 43 45  0  0  0  0  0  0  0  0999 V2000
   -0.0164    1.3546    0.0095 O   0  0  0  1  0  0  0  0  0  0  0  0
   -2.9048    0.2750    1.4163 N   0  0  0  1  0  0  0  0  0  0  0  0
   -1.1765   -0.6940    0.0096 C   0  0  0  1  0  0  0  0  0  0  0  0
   -2.4884    0.0474    0.0260 C   0  0  0  1  0  0  0  0  0  0  0  0
   -1.1589   -2.0984   -0.0040 C   0  0  0  1  0  0  0  0  0  0  0  0
    0.0848   -2.7788   -0.0199 C   0  0  0  1  0  0  0  0  0  0  0  0
    0.0021   -0.0041    0.0020 C   0  0  0  1  0  0  0  0  0  0  0  0
   -4.1830    0.9970    1.4715 C   0  0  0  1  0  0  0  0  0  0  0  0
    1.2787   -2.0363   -0.0220 C   0  0  0  1  0  0  0  0  0  0  0  0
   -2.3512   -2.8425   -0.0016 C   0  0  0  1  0  0  0  0  0  0  0  0
   -4.5769    1.2117    2.9102 C   0  0  0  1  0  0  0  0  0  0  0  0
    1.2277   -0.6775   -0.0138 C   0  0  0  1  0  0  0  0  0  0  0  0
    0.1010   -4.1835   -0.0330 C   0  0  0  1  0  0  0  0  0  0  0  0
   -2.2964   -4.2026   -0.0146 C   0  0  0  1  0  0  0  0  0  0  0  0
   -1.0740   -4.8711   -0.0303 C   0  0  0  1  0  0  0  0  0  0  0  0
   -4.1685    2.3524    3.5758 C   0  0  0  1  0  0  0  0  0  0  0  0
   -5.3513    0.2706    3.5626 C   0  0  0  1  0  0  0  0  0  0  0  0
   -5.2998    1.6057    5.5494 C   0  0  0  1  0  0  0  0  0  0  0  0
   -4.5298    2.5493    4.8955 C   0  0  0  1  0  0  0  0  0  0  0  0
   -5.7126    0.4676    4.8822 C   0  0  0  1  0  0  0  0  0  0  0  0
   -5.6933    1.8201    6.9883 C   0  0  0  1  0  0  0  0  0  0  0  0
    1.2479    2.0207    0.0010 C   0  0  0  1  0  0  0  0  0  0  0  0
   -3.2463   -0.5438   -0.4881 H   0  0  0  1  0  0  0  0  0  0  0  0
   -2.3705    1.0058   -0.4795 H   0  0  0  1  0  0  0  0  0  0  0  0
   -2.9587   -0.5949    1.9247 H   0  0  0  1  0  0  0  0  0  0  0  0
   -4.0768    1.9621    0.9760 H   0  0  0  1  0  0  0  0  0  0  0  0
   -4.9526    0.4125    0.9674 H   0  0  0  1  0  0  0  0  0  0  0  0
    2.2324   -2.5430   -0.0337 H   0  0  0  1  0  0  0  0  0  0  0  0
   -3.3059   -2.3378    0.0109 H   0  0  0  1  0  0  0  0  0  0  0  0
    2.1468   -0.1102   -0.0198 H   0  0  0  1  0  0  0  0  0  0  0  0
    1.0409   -4.7153   -0.0456 H   0  0  0  1  0  0  0  0  0  0  0  0
   -3.2141   -4.7720   -0.0127 H   0  0  0  1  0  0  0  0  0  0  0  0
   -1.0584   -5.9509   -0.0404 H   0  0  0  1  0  0  0  0  0  0  0  0
   -3.5669    3.0896    3.0648 H   0  0  0  1  0  0  0  0  0  0  0  0
   -5.6743   -0.6183    3.0411 H   0  0  0  1  0  0  0  0  0  0  0  0
   -4.2102    3.4401    5.4157 H   0  0  0  1  0  0  0  0  0  0  0  0
   -6.3179   -0.2675    5.3918 H   0  0  0  1  0  0  0  0  0  0  0  0
   -6.6414    2.3564    7.0296 H   0  0  0  1  0  0  0  0  0  0  0  0
   -5.7998    0.8550    7.4835 H   0  0  0  1  0  0  0  0  0  0  0  0
   -4.9233    2.4042    7.4923 H   0  0  0  1  0  0  0  0  0  0  0  0
    1.8173    1.7306    0.8840 H   0  0  0  1  0  0  0  0  0  0  0  0
    1.8003    1.7402   -0.8958 H   0  0  0  1  0  0  0  0  0  0  0  0
    1.0905    3.0992    0.0083 H   0  0  0  1  0  0  0  0  0  0  0  0
  1  7  1  0  0  0  0
  1 22  1  0  0  0  0
  2  4  1  0  0  0  0
  2  8  1  0  0  0  0
  2 25  1  0  0  0  0
  3  4  1  0  0  0  0
  3  5  4  0  0  0  0
  3  7  4  0  0  0  0
  4 23  1  0  0  0  0
  4 24  1  0  0  0  0
  5  6  4  0  0  0  0
  5 10  4  0  0  0  0
  6  9  4  0  0  0  0
  6 13  4  0  0  0  0
  7 12  4  0  0  0  0
  8 11  1  0  0  0  0
  8 26  1  0  0  0  0
  8 27  1  0  0  0  0
  9 12  4  0  0  0  0
  9 28  1  0  0  0  0
 10 14  4  0  0  0  0
 10 29  1  0  0  0  0
 11 16  4  0  0  0  0
 11 17  4  0  0  0  0
 12 30  1  0  0  0  0
 13 15  4  0  0  0  0
 13 31  1  0  0  0  0
 14 15  4  0  0  0  0
 14 32  1  0  0  0  0
 15 33  1  0  0  0  0
 16 19  4  0  0  0  0
 16 34  1  0  0  0  0
 17 20  4  0  0  0  0
 17 35  1  0  0  0  0
 18 19  4  0  0  0  0
 18 20  4  0  0  0  0
 18 21  1  0  0  0  0
 19 36  1  0  0  0  0
 20 37  1  0  0  0  0
 21 38  1  0  0  0  0
 21 39  1  0  0  0  0
 21 40  1  0  0  0  0
 22 41  1  0  0  0  0
 22 42  1  0  0  0  0
 22 43  1  0  0  0  0
M  END
> <Activity>
0.01

> <Mapped(file=2032.csv.activities,property=Cached(PUBCHEM_COMPOUND_CID))>
100

> <MatchIndices>
82 

> <PUBCHEM_ATOM_DEF_STEREO_COUNT>
0

> <PUBCHEM_ATOM_UDEF_STEREO_COUNT>
0

> <PUBCHEM_BONDANNOTATIONS>
10  13  8
10  17  8
11  16  8
13  16  8
14  18  8
15  20  8
15  21  8
17  19  8
18  19  8
20  23  8
21  24  8
22  23  8
22  24  8
7  11  8
7  9  8
9  10  8
9  14  8

> <PUBCHEM_BOND_DEF_STEREO_COUNT>
0

> <PUBCHEM_BOND_UDEF_STEREO_COUNT>
0

> <PUBCHEM_CACTVS_COMPLEXITY>
395

> <PUBCHEM_CACTVS_HBOND_ACCEPTOR>
6

> <PUBCHEM_CACTVS_HBOND_DONOR>
3

> <PUBCHEM_CACTVS_ROTATABLE_BOND>
6

> <PUBCHEM_CACTVS_SUBSKEYS>
AAADceB6OAAAAAAAAAAAAAAAAAAAAAAAAAAwYMAAAAAAAADBVAAAHgAQCAAADATBmAYyDsLABgCIAiDSCAKCCAAgIAAIiIBODIgNJiKEsRuEMChmwBGJqAeQwPAO4AADAAAYAADAAAYAADAAAAAAAAAAAA==

> <PUBCHEM_CACTVS_TAUTO_COUNT>
1

> <PUBCHEM_CACTVS_TPSA>
95.9

> <PUBCHEM_COMPONENT_COUNT>
2

> <PUBCHEM_COMPOUND_CANONICALIZED>
1

> <PUBCHEM_COMPOUND_CID>
16248173

> <PUBCHEM_COORDINATE_TYPE>
1
5
255

> <PUBCHEM_EXACT_MASS>
381.157623

> <PUBCHEM_HEAVY_ATOM_COUNT>
28

> <PUBCHEM_ISOTOPIC_ATOM_COUNT>
0

> <PUBCHEM_IUPAC_CAS_NAME>
N-[(2-methoxy-1-naphthalenyl)methyl]-1-(4-methylphenyl)methanamine; oxalic acid

> <PUBCHEM_IUPAC_INCHI>
InChI=1S/C20H21NO.C2H2O4/c1-15-7-9-16(10-8-15)13-21-14-19-18-6-4-3-5-17(18)11-12-20(19)22-2;3-1(4)2(5)6/h3-12,21H,13-14H2,1-2H3;(H,3,4)(H,5,6)

> <PUBCHEM_IUPAC_INCHIKEY>
SBCJXNKVQHWRRJ-UHFFFAOYSA-N

> <PUBCHEM_IUPAC_NAME>
N-[(2-methoxynaphthalen-1-yl)methyl]-1-(4-methylphenyl)methanamine; oxalic acid

> <PUBCHEM_IUPAC_OPENEYE_NAME>
N-[(2-methoxy-1-naphthyl)methyl]-1-(p-tolyl)methanamine; oxalic acid

> <PUBCHEM_IUPAC_SYSTEMATIC_NAME>
ethanedioic acid; N-[(2-methoxynaphthalen-1-yl)methyl]-1-(4-methylphenyl)methanamine

> <PUBCHEM_IUPAC_TRADITIONAL_NAME>
(2-methoxy-1-naphthyl)methyl-(4-methylbenzyl)amine; oxalic acid

> <PUBCHEM_MOLECULAR_FORMULA>
C22H23NO5

> <PUBCHEM_MOLECULAR_WEIGHT>
381.42172

> <PUBCHEM_MONOISOTOPIC_WEIGHT>
381.157623

> <PUBCHEM_OPENEYE_CAN_SMILES>
CC1=CC=C(C=C1)CNCC2=C(C=CC3=CC=CC=C32)OC.C(=O)(C(=O)O)O

> <PUBCHEM_OPENEYE_ISO_SMILES>
CC1=CC=C(C=C1)CNCC2=C(C=CC3=CC=CC=C32)OC.C(=O)(C(=O)O)O

> <PUBCHEM_TOTAL_CHARGE>
0

$$$$
Largest isolated from Written by BCL::WriteToMDL,1476513
JMcorina  04211410293D 1   1.00000     0.00000 
CORINA 3.49 0026  01.06.2011
 37 39  0  0  0  0  0  0  0  0999 V2000
   -2.7899   -2.1188   -2.0625 Cl  0  0  0  1  0  0  0  0  0  0  0  0
    7.5539    5.7546    0.1632 Cl  0  0  0  1  0  0  0  0  0  0  0  0
   -0.0214    1.7567    0.0752 S   0  0  0  1  0  0  0  0  0  0  0  0
   -7.1851    0.0484    1.0136 F   0  0  0  1  0  0  0  0  0  0  0  0
   -7.0265    0.8254   -1.1289 F   0  0  0  1  0  0  0  0  0  0  0  0
   -6.4891    2.1891    0.6234 F   0  0  0  1  0  0  0  0  0  0  0  0
    1.0384    4.3419    0.1426 O   0  0  0  1  0  0  0  0  0  0  0  0
   -1.0934   -0.8179    0.0081 N   0  0  0  1  0  0  0  0  0  0  0  0
   -2.8355    0.4789    0.9143 N   0  0  0  1  0  0  0  0  0  0  0  0
    1.0767   -0.7581    0.0030 N   0  0  0  1  0  0  0  0  0  0  0  0
   -2.4313   -0.4127    0.0242 C   0  0  0  1  0  0  0  0  0  0  0  0
    0.0022   -0.0045    0.0271 C   0  0  0  1  0  0  0  0  0  0  0  0
   -3.3247   -0.9500   -0.8956 C   0  0  0  1  0  0  0  0  0  0  0  0
   -0.6288   -2.1160   -0.0239 C   0  0  0  1  0  0  0  0  0  0  0  0
   -5.0302    0.3970    0.0815 C   0  0  0  1  0  0  0  0  0  0  0  0
    1.7567    2.0949    0.0793 C   0  0  0  1  0  0  0  0  0  0  0  0
   -4.6475   -0.5396   -0.8683 C   0  0  0  1  0  0  0  0  0  0  0  0
    3.3552    4.1181    0.1298 C   0  0  0  1  0  0  0  0  0  0  0  0
    1.9848    3.5840    0.1192 C   0  0  0  1  0  0  0  0  0  0  0  0
   -4.0883    0.8885    0.9642 C   0  0  0  1  0  0  0  0  0  0  0  0
    0.7133   -2.0516   -0.0285 C   0  0  0  1  0  0  0  0  0  0  0  0
   -6.4583    0.8735    0.1486 C   0  0  0  1  0  0  0  0  0  0  0  0
    3.5707    5.4999    0.1669 C   0  0  0  1  0  0  0  0  0  0  0  0
    4.4494    3.2466    0.1087 C   0  0  0  1  0  0  0  0  0  0  0  0
    4.8575    5.9932    0.1770 C   0  0  0  1  0  0  0  0  0  0  0  0
    5.7306    3.7542    0.1192 C   0  0  0  1  0  0  0  0  0  0  0  0
    5.9364    5.1242    0.1507 C   0  0  0  1  0  0  0  0  0  0  0  0
   -1.2293   -3.0135   -0.0419 H   0  0  0  1  0  0  0  0  0  0  0  0
    2.2123    1.6339    0.9557 H   0  0  0  1  0  0  0  0  0  0  0  0
    2.2071    1.6824   -0.8236 H   0  0  0  1  0  0  0  0  0  0  0  0
   -5.3645   -0.9390   -1.5704 H   0  0  0  1  0  0  0  0  0  0  0  0
   -4.3815    1.6175    1.7051 H   0  0  0  1  0  0  0  0  0  0  0  0
    1.3861   -2.8961   -0.0529 H   0  0  0  1  0  0  0  0  0  0  0  0
    2.7307    6.1784    0.1871 H   0  0  0  1  0  0  0  0  0  0  0  0
    4.2904    2.1787    0.0845 H   0  0  0  1  0  0  0  0  0  0  0  0
    5.0254    7.0597    0.2053 H   0  0  0  1  0  0  0  0  0  0  0  0
    6.5763    3.0826    0.1033 H   0  0  0  1  0  0  0  0  0  0  0  0
  1 13  1  0  0  0  0
  2 27  1  0  0  0  0
  3 12  1  0  0  0  0
  3 16  1  0  0  0  0
  4 22  1  0  0  0  0
  5 22  1  0  0  0  0
  6 22  1  0  0  0  0
  7 19  2  0  0  0  0
  8 11  1  0  0  0  0
  8 12  4  0  0  0  0
  8 14  4  0  0  0  0
  9 11  4  0  0  0  0
  9 20  4  0  0  0  0
 10 12  4  0  0  0  0
 10 21  4  0  0  0  0
 11 13  4  0  0  0  0
 13 17  4  0  0  0  0
 14 21  4  0  0  0  0
 14 28  1  0  0  0  0
 15 17  4  0  0  0  0
 15 20  4  0  0  0  0
 15 22  1  0  0  0  0
 16 19  1  0  0  0  0
 16 29  1  0  0  0  0
 16 30  1  0  0  0  0
 17 31  1  0  0  0  0
 18 19  1  0  0  0  0
 18 23  4  0  0  0  0
 18 24  4  0  0  0  0
 20 32  1  0  0  0  0
 21 33  1  0  0  0  0
 23 25  4  0  0  0  0
 23 34  1  0  0  0  0
 24 26  4  0  0  0  0
 24 35  1  0  0  0  0
 25 27  4  0  0  0  0
 25 36  1  0  0  0  0
 26 27  4  0  0  0  0
 26 37  1  0  0  0  0
M  END
> <Activity>
0.01

> <Mapped(file=2032.csv.activities,property=Cached(PUBCHEM_COMPOUND_CID))>
100

> <MatchIndices>
170 

> <PUBCHEM_ATOM_DEF_STEREO_COUNT>
0

> <PUBCHEM_ATOM_UDEF_STEREO_COUNT>
0

> <PUBCHEM_BONDANNOTATIONS>
10  12  8
10  21  8
11  13  8
13  17  8
14  21  8
15  17  8
15  20  8
18  23  8
18  24  8
23  25  8
24  26  8
25  27  8
26  27  8
8  12  8
8  14  8
9  11  8
9  20  8

> <PUBCHEM_BOND_DEF_STEREO_COUNT>
0

> <PUBCHEM_BOND_UDEF_STEREO_COUNT>
0

> <PUBCHEM_CACTVS_COMPLEXITY>
520

> <PUBCHEM_CACTVS_HBOND_ACCEPTOR>
6

> <PUBCHEM_CACTVS_HBOND_DONOR>
0

> <PUBCHEM_CACTVS_ROTATABLE_BOND>
5

> <PUBCHEM_CACTVS_SUBSKEYS>
AAADccB7IYBGAAAAAAAAAAAAAAAAAWAAAAA8QAAAAAAAAAAB8AAAHwYAAAAADAbF2jS9sJcMEAioArJ3ZACC0C11F7AJ2CE4dtiIaPLhn5HUIQhogALIyacYiICOBAAAAAAAAAAIAAAAAAAAAAAAAAAAAA==

> <PUBCHEM_CACTVS_TAUTO_COUNT>
2

> <PUBCHEM_CACTVS_TPSA>
73.1

> <PUBCHEM_COMPONENT_COUNT>
1

> <PUBCHEM_COMPOUND_CANONICALIZED>
1

> <PUBCHEM_COMPOUND_CID>
1476513

> <PUBCHEM_COORDINATE_TYPE>
1
5
255

> <PUBCHEM_EXACT_MASS>
430.987373

> <PUBCHEM_HEAVY_ATOM_COUNT>
27

> <PUBCHEM_ISOTOPIC_ATOM_COUNT>
0

> <PUBCHEM_IUPAC_CAS_NAME>
1-(4-chlorophenyl)-2-[[1-[3-chloro-5-(trifluoromethyl)-2-pyridinyl]-2-imidazolyl]thio]ethanone

> <PUBCHEM_IUPAC_INCHI>
InChI=1S/C17H10Cl2F3N3OS/c18-12-3-1-10(2-4-12)14(26)9-27-16-23-5-6-25(16)15-13(19)7-11(8-24-15)17(20,21)22/h1-8H,9H2

> <PUBCHEM_IUPAC_INCHIKEY>
ANNWRJXOLOYOMV-UHFFFAOYSA-N

> <PUBCHEM_IUPAC_NAME>
1-(4-chlorophenyl)-2-[1-[3-chloro-5-(trifluoromethyl)pyridin-2-yl]imidazol-2-yl]sulfanylethanone

> <PUBCHEM_IUPAC_OPENEYE_NAME>
1-(4-chlorophenyl)-2-[1-[3-chloro-5-(trifluoromethyl)-2-pyridyl]imidazol-2-yl]sulfanyl-ethanone

> <PUBCHEM_IUPAC_SYSTEMATIC_NAME>
2-[1-[3-chloranyl-5-(trifluoromethyl)pyridin-2-yl]imidazol-2-yl]sulfanyl-1-(4-chlorophenyl)ethanone

> <PUBCHEM_IUPAC_TRADITIONAL_NAME>
1-(4-chlorophenyl)-2-[[1-[3-chloro-5-(trifluoromethyl)-2-pyridyl]imidazol-2-yl]thio]ethanone

> <PUBCHEM_MOLECULAR_FORMULA>
C17H10Cl2F3N3OS

> <PUBCHEM_MOLECULAR_WEIGHT>
432.24701

> <PUBCHEM_MONOISOTOPIC_WEIGHT>
430.987373

> <PUBCHEM_OPENEYE_CAN_SMILES>
C1=CC(=CC=C1C(=O)CSC2=NC=CN2C3=C(C=C(C=N3)C(F)(F)F)Cl)Cl

> <PUBCHEM_OPENEYE_ISO_SMILES>
C1=CC(=CC=C1C(=O)CSC2=NC=CN2C3=C(C=C(C=N3)C(F)(F)F)Cl)Cl

> <PUBCHEM_TOTAL_CHARGE>
0

> <PUBCHEM_XLOGP3_AA>
5.3

$$$$
Largest isolated from Written by BCL::WriteToMDL,19579917
JMcorina  04211410293D 1   1.00000     0.00000 
CORINA 3.49 0026  01.06.2011
 36 36  0  0  0  0  0  0  0  0999 V2000
    0.9786    1.9352    2.8418 Br  0  0  0  1  0  0  0  0  0  0  0  0
   -0.0173    1.4248    0.0099 O   0  0  0  1  0  0  0  0  0  0  0  0
    1.1742    2.0772   -2.3822 O   0  0  0  1  0  0  0  0  0  0  0  0
    6.7801    4.9912    1.0934 O   0  0  0  1  0  0  0  0  0  0  0  0
    5.5269    4.3321    1.0988 N   0  0  0  1  0  0  0  0  0  0  0  0
   -1.4333   -0.5336    0.0129 C   0  0  0  1  0  0  0  0  0  0  0  0
    0.0021   -0.0041    0.0020 C   0  0  0  1  0  0  0  0  0  0  0  0
   -1.4126   -2.0635    0.0045 C   0  0  0  1  0  0  0  0  0  0  0  0
    1.1852    2.0582    0.0018 C   0  0  0  1  0  0  0  0  0  0  0  0
    1.7885    2.3886   -1.2095 C   0  0  0  1  0  0  0  0  0  0  0  0
   -2.8479   -2.5931    0.0153 C   0  0  0  1  0  0  0  0  0  0  0  0
    1.8067    2.3796    1.2008 C   0  0  0  1  0  0  0  0  0  0  0  0
    3.0117    3.0325   -1.2198 C   0  0  0  1  0  0  0  0  0  0  0  0
    3.6402    3.3510   -0.0137 C   0  0  0  1  0  0  0  0  0  0  0  0
    3.0270    3.0230    1.1977 C   0  0  0  1  0  0  0  0  0  0  0  0
    1.8498    2.4457   -3.5863 C   0  0  0  1  0  0  0  0  0  0  0  0
    4.9459    4.0377   -0.0193 C   0  0  0  1  0  0  0  0  0  0  0  0
    1.0122    2.0170   -4.7927 C   0  0  0  1  0  0  0  0  0  0  0  0
   -1.9435   -0.1821    0.9097 H   0  0  0  1  0  0  0  0  0  0  0  0
   -1.9605   -0.1726   -0.8702 H   0  0  0  1  0  0  0  0  0  0  0  0
    0.5123   -0.3556   -0.8948 H   0  0  0  1  0  0  0  0  0  0  0  0
    0.5293   -0.3651    0.8851 H   0  0  0  1  0  0  0  0  0  0  0  0
   -0.9024   -2.4150   -0.8923 H   0  0  0  1  0  0  0  0  0  0  0  0
   -0.8854   -2.4246    0.8875 H   0  0  0  1  0  0  0  0  0  0  0  0
   -3.3581   -2.2415    0.9121 H   0  0  0  1  0  0  0  0  0  0  0  0
   -3.3751   -2.2320   -0.8677 H   0  0  0  1  0  0  0  0  0  0  0  0
   -2.8332   -3.6829    0.0093 H   0  0  0  1  0  0  0  0  0  0  0  0
    3.4806    3.2884   -2.1584 H   0  0  0  1  0  0  0  0  0  0  0  0
    3.5087    3.2720    2.1317 H   0  0  0  1  0  0  0  0  0  0  0  0
    1.9912    3.5262   -3.6076 H   0  0  0  1  0  0  0  0  0  0  0  0
    2.8206    1.9515   -3.6240 H   0  0  0  1  0  0  0  0  0  0  0  0
    5.4168    4.2947   -0.9566 H   0  0  0  1  0  0  0  0  0  0  0  0
    0.8709    0.9364   -4.7715 H   0  0  0  1  0  0  0  0  0  0  0  0
    0.0414    2.5112   -4.7551 H   0  0  0  1  0  0  0  0  0  0  0  0
    1.5276    2.2980   -5.7112 H   0  0  0  1  0  0  0  0  0  0  0  0
    7.1348    5.1689    1.9753 H   0  0  0  1  0  0  0  0  0  0  0  0
  1 12  1  0  0  0  0
  2  7  1  0  0  0  0
  2  9  1  0  0  0  0
  3 10  1  0  0  0  0
  3 16  1  0  0  0  0
  4  5  1  0  0  0  0
  4 36  1  0  0  0  0
  5 17  2  0  0  0  0
  6  7  1  0  0  0  0
  6  8  1  0  0  0  0
  6 19  1  0  0  0  0
  6 20  1  0  0  0  0
  7 21  1  0  0  0  0
  7 22  1  0  0  0  0
  8 11  1  0  0  0  0
  8 23  1  0  0  0  0
  8 24  1  0  0  0  0
  9 10  4  0  0  0  0
  9 12  4  0  0  0  0
 10 13  4  0  0  0  0
 11 25  1  0  0  0  0
 11 26  1  0  0  0  0
 11 27  1  0  0  0  0
 12 15  4  0  0  0  0
 13 14  4  0  0  0  0
 13 28  1  0  0  0  0
 14 15  4  0  0  0  0
 14 17  1  0  0  0  0
 15 29  1  0  0  0  0
 16 18  1  0  0  0  0
 16 30  1  0  0  0  0
 16 31  1  0  0  0  0
 17 32  1  0  0  0  0
 18 33  1  0  0  0  0
 18 34  1  0  0  0  0
 18 35  1  0  0  0  0
M  END
> <Activity>
0.01

> <Mapped(file=2032.csv.activities,property=Cached(PUBCHEM_COMPOUND_CID))>
100

> <MatchIndices>
182 

> <PUBCHEM_ATOM_DEF_STEREO_COUNT>
0

> <PUBCHEM_ATOM_UDEF_STEREO_COUNT>
0

> <PUBCHEM_BONDANNOTATIONS>
10  13  8
12  15  8
13  14  8
14  15  8
9  10  8
9  12  8

> <PUBCHEM_BOND_DEF_STEREO_COUNT>
1

> <PUBCHEM_BOND_UDEF_STEREO_COUNT>
0

> <PUBCHEM_CACTVS_COMPLEXITY>
250

> <PUBCHEM_CACTVS_HBOND_ACCEPTOR>
4

> <PUBCHEM_CACTVS_HBOND_DONOR>
1

> <PUBCHEM_CACTVS_ROTATABLE_BOND>
7

> <PUBCHEM_CACTVS_SUBSKEYS>
AAADceByMAAAEAAAAAAAAAAAAAAAAAAAAAAwAAAAAAAAAAABAAAAHgBECAABrAThmAYyBoAQBACgAjBjAAACCAAgIAQAiAAmiLgNJqKEMRqCOCKkwBEKqheAwBAOIAABEIAARABAAAIhAACIAAAAAAAAAA==

> <PUBCHEM_CACTVS_TAUTO_COUNT>
2

> <PUBCHEM_CACTVS_TPSA>
51

> <PUBCHEM_COMPONENT_COUNT>
1

> <PUBCHEM_COMPOUND_CANONICALIZED>
1

> <PUBCHEM_COMPOUND_CID>
19579917

> <PUBCHEM_COORDINATE_TYPE>
1
5
255

> <PUBCHEM_EXACT_MASS>
315.047006

> <PUBCHEM_HEAVY_ATOM_COUNT>
18

> <PUBCHEM_ISOTOPIC_ATOM_COUNT>
0

> <PUBCHEM_IUPAC_CAS_NAME>
(1E)-3-bromo-4-butoxy-5-ethoxybenzaldehyde oxime

> <PUBCHEM_IUPAC_INCHI>
InChI=1S/C13H18BrNO3/c1-3-5-6-18-13-11(14)7-10(9-15-16)8-12(13)17-4-2/h7-9,16H,3-6H2,1-2H3/b15-9+

> <PUBCHEM_IUPAC_INCHIKEY>
QJNADSGVMFOGFF-OQLLNIDSSA-N

> <PUBCHEM_IUPAC_NAME>
(NE)-N-[(3-bromo-4-butoxy-5-ethoxyphenyl)methylidene]hydroxylamine

> <PUBCHEM_IUPAC_OPENEYE_NAME>
(1E)-3-bromo-4-butoxy-5-ethoxy-benzaldehyde oxime

> <PUBCHEM_IUPAC_SYSTEMATIC_NAME>
(NE)-N-[(3-bromanyl-4-butoxy-5-ethoxy-phenyl)methylidene]hydroxylamine

> <PUBCHEM_IUPAC_TRADITIONAL_NAME>
(1E)-3-bromo-4-butoxy-5-ethoxy-benzaldoxime

> <PUBCHEM_MOLECULAR_FORMULA>
C13H18BrNO3

> <PUBCHEM_MOLECULAR_WEIGHT>
316.19092

> <PUBCHEM_MONOISOTOPIC_WEIGHT>
315.047006

> <PUBCHEM_OPENEYE_CAN_SMILES>
CCCCOC1=C(C=C(C=C1Br)C=NO)OCC

> <PUBCHEM_OPENEYE_ISO_SMILES>
CCCCOC1=C(C=C(C=C1Br)/C=N/O)OCC

> <PUBCHEM_TOTAL_CHARGE>
0

> <PUBCHEM_XLOGP3_AA>
3.9

$$$$
Largest isolated from Written by BCL::WriteToMDL,2934578
JMcorina  04211410293D 1   1.00000     0.00000 
CORINA 3.49 0026  01.06.2011
 52 53  0  0  0  0  0  0  0  0999 V2000
   -0.0173    1.4248    0.0099 O   0  0  0  1  0  0  0  0  0  0  0  0
   -2.8280   -4.0619    0.0072 N   0  0  0  1  0  0  0  0  0  0  0  0
   -1.4126   -2.0635    0.0045 C   0  0  0  1  0  0  0  0  0  0  0  0
   -2.8479   -2.5931    0.0153 C   0  0  0  1  0  0  0  0  0  0  0  0
   -1.4333   -0.5336    0.0129 C   0  0  0  1  0  0  0  0  0  0  0  0
   -4.1690   -4.6080    0.2553 C   0  0  0  1  0  0  0  0  0  0  0  0
    0.0021   -0.0041    0.0020 C   0  0  0  1  0  0  0  0  0  0  0  0
   -2.2761   -4.5740   -1.2542 C   0  0  0  1  0  0  0  0  0  0  0  0
   -4.0718   -6.0944    0.4837 C   0  0  0  1  0  0  0  0  0  0  0  0
    1.1850    2.0582    0.0018 C   0  0  0  1  0  0  0  0  0  0  0  0
    1.2402    3.4446    0.0087 C   0  0  0  1  0  0  0  0  0  0  0  0
    2.4635    4.0860    0.0010 C   0  0  0  1  0  0  0  0  0  0  0  0
    2.3592    1.3197   -0.0076 C   0  0  0  1  0  0  0  0  0  0  0  0
    3.5804    1.9661   -0.0153 C   0  0  0  1  0  0  0  0  0  0  0  0
    3.6326    3.3475   -0.0137 C   0  0  0  1  0  0  0  0  0  0  0  0
   -3.8873   -6.5866    1.7622 C   0  0  0  1  0  0  0  0  0  0  0  0
   -4.1728   -6.9659   -0.5845 C   0  0  0  1  0  0  0  0  0  0  0  0
   -0.0335    4.2499    0.0242 C   0  0  0  1  0  0  0  0  0  0  0  0
    2.5241    5.5917    0.0080 C   0  0  0  1  0  0  0  0  0  0  0  0
    4.8564    1.1644   -0.0255 C   0  0  0  1  0  0  0  0  0  0  0  0
   -3.7980   -7.9500    1.9718 C   0  0  0  1  0  0  0  0  0  0  0  0
   -4.0836   -8.3293   -0.3750 C   0  0  0  1  0  0  0  0  0  0  0  0
   -3.8938   -8.8213    0.9029 C   0  0  0  1  0  0  0  0  0  0  0  0
   -0.8854   -2.4246    0.8875 H   0  0  0  1  0  0  0  0  0  0  0  0
   -0.9024   -2.4150   -0.8923 H   0  0  0  1  0  0  0  0  0  0  0  0
   -3.3751   -2.2320   -0.8677 H   0  0  0  1  0  0  0  0  0  0  0  0
   -3.3581   -2.2415    0.9121 H   0  0  0  1  0  0  0  0  0  0  0  0
   -1.9605   -0.1726   -0.8702 H   0  0  0  1  0  0  0  0  0  0  0  0
   -1.9435   -0.1821    0.9097 H   0  0  0  1  0  0  0  0  0  0  0  0
   -4.5977   -4.1321    1.1373 H   0  0  0  1  0  0  0  0  0  0  0  0
   -4.8057   -4.4139   -0.6079 H   0  0  0  1  0  0  0  0  0  0  0  0
    0.5123   -0.3556   -0.8948 H   0  0  0  1  0  0  0  0  0  0  0  0
    0.5293   -0.3651    0.8851 H   0  0  0  1  0  0  0  0  0  0  0  0
   -1.2563   -4.2099   -1.3789 H   0  0  0  1  0  0  0  0  0  0  0  0
   -2.2729   -5.6638   -1.2335 H   0  0  0  1  0  0  0  0  0  0  0  0
   -2.8896   -4.2282   -2.0861 H   0  0  0  1  0  0  0  0  0  0  0  0
    2.3189    0.2405   -0.0085 H   0  0  0  1  0  0  0  0  0  0  0  0
    4.5881    3.8509   -0.0201 H   0  0  0  1  0  0  0  0  0  0  0  0
   -3.8125   -5.9058    2.5974 H   0  0  0  1  0  0  0  0  0  0  0  0
   -4.3217   -6.5816   -1.5828 H   0  0  0  1  0  0  0  0  0  0  0  0
   -0.3315    4.4386    1.0555 H   0  0  0  1  0  0  0  0  0  0  0  0
    0.1306    5.1991   -0.4860 H   0  0  0  1  0  0  0  0  0  0  0  0
   -0.8207    3.6946   -0.4857 H   0  0  0  1  0  0  0  0  0  0  0  0
    2.5479    5.9496    1.0373 H   0  0  0  1  0  0  0  0  0  0  0  0
    3.4233    5.9216   -0.5123 H   0  0  0  1  0  0  0  0  0  0  0  0
    1.6449    5.9931   -0.4960 H   0  0  0  1  0  0  0  0  0  0  0  0
    5.1568    0.9726   -1.0556 H   0  0  0  1  0  0  0  0  0  0  0  0
    5.6411    1.7240    0.4836 H   0  0  0  1  0  0  0  0  0  0  0  0
    4.6943    0.2168    0.4881 H   0  0  0  1  0  0  0  0  0  0  0  0
   -3.6532   -8.3345    2.9706 H   0  0  0  1  0  0  0  0  0  0  0  0
   -4.1628   -9.0103   -1.2095 H   0  0  0  1  0  0  0  0  0  0  0  0
   -3.8237   -9.8865    1.0665 H   0  0  0  1  0  0  0  0  0  0  0  0
  1  7  1  0  0  0  0
  1 10  1  0  0  0  0
  2  4  1  0  0  0  0
  2  6  1  0  0  0  0
  2  8  1  0  0  0  0
  3  4  1  0  0  0  0
  3  5  1  0  0  0  0
  3 24  1  0  0  0  0
  3 25  1  0  0  0  0
  4 26  1  0  0  0  0
  4 27  1  0  0  0  0
  5  7  1  0  0  0  0
  5 28  1  0  0  0  0
  5 29  1  0  0  0  0
  6  9  1  0  0  0  0
  6 30  1  0  0  0  0
  6 31  1  0  0  0  0
  7 32  1  0  0  0  0
  7 33  1  0  0  0  0
  8 34  1  0  0  0  0
  8 35  1  0  0  0  0
  8 36  1  0  0  0  0
  9 16  4  0  0  0  0
  9 17  4  0  0  0  0
 10 11  4  0  0  0  0
 10 13  4  0  0  0  0
 11 12  4  0  0  0  0
 11 18  1  0  0  0  0
 12 15  4  0  0  0  0
 12 19  1  0  0  0  0
 13 14  4  0  0  0  0
 13 37  1  0  0  0  0
 14 15  4  0  0  0  0
 14 20  1  0  0  0  0
 15 38  1  0  0  0  0
 16 21  4  0  0  0  0
 16 39  1  0  0  0  0
 17 22  4  0  0  0  0
 17 40  1  0  0  0  0
 18 41  1  0  0  0  0
 18 42  1  0  0  0  0
 18 43  1  0  0  0  0
 19 44  1  0  0  0  0
 19 45  1  0  0  0  0
 19 46  1  0  0  0  0
 20 47  1  0  0  0  0
 20 48  1  0  0  0  0
 20 49  1  0  0  0  0
 21 23  4  0  0  0  0
 21 50  1  0  0  0  0
 22 23  4  0  0  0  0
 22 51  1  0  0  0  0
 23 52  1  0  0  0  0
M  END
> <Activity>
0.01

> <Mapped(file=2032.csv.activities,property=Cached(PUBCHEM_COMPOUND_CID))>
100

> <MatchIndices>
190 

> <PUBCHEM_ATOM_DEF_STEREO_COUNT>
0

> <PUBCHEM_ATOM_UDEF_STEREO_COUNT>
0

> <PUBCHEM_BONDANNOTATIONS>
13  20  8
13  21  8
14  15  8
14  17  8
15  16  8
16  19  8
17  18  8
18  19  8
20  25  8
21  26  8
25  27  8
26  27  8

> <PUBCHEM_BOND_DEF_STEREO_COUNT>
0

> <PUBCHEM_BOND_UDEF_STEREO_COUNT>
0

> <PUBCHEM_CACTVS_COMPLEXITY>
385

> <PUBCHEM_CACTVS_HBOND_ACCEPTOR>
6

> <PUBCHEM_CACTVS_HBOND_DONOR>
2

> <PUBCHEM_CACTVS_ROTATABLE_BOND>
9

> <PUBCHEM_CACTVS_SUBSKEYS>
AAADceB6OAAAAAAAAAAAAAAAAAAAAAAAAAAwYAAAAAAAAAABQAAAHgAACAAADAThmAYyDoMABgCIAiDSCAKCCAAgIAAIiABODIgNJiKEsRuGOCjkwBGJqAewwPAOwAADAAAYAACAAAYAADAAAAAAAAAAAA==

> <PUBCHEM_CACTVS_TAUTO_COUNT>
1

> <PUBCHEM_CACTVS_TPSA>
87.1

> <PUBCHEM_COMPONENT_COUNT>
2

> <PUBCHEM_COMPOUND_CANONICALIZED>
1

> <PUBCHEM_COMPOUND_CID>
2934578

> <PUBCHEM_COORDINATE_TYPE>
1
5
255

> <PUBCHEM_EXACT_MASS>
401.220223

> <PUBCHEM_HEAVY_ATOM_COUNT>
29

> <PUBCHEM_ISOTOPIC_ATOM_COUNT>
0

> <PUBCHEM_IUPAC_CAS_NAME>
N-methyl-N-(phenylmethyl)-4-(2,3,5-trimethylphenoxy)-1-butanamine; oxalic acid

> <PUBCHEM_IUPAC_INCHI>
InChI=1S/C21H29NO.C2H2O4/c1-17-14-18(2)19(3)21(15-17)23-13-9-8-12-22(4)16-20-10-6-5-7-11-20;3-1(4)2(5)6/h5-7,10-11,14-15H,8-9,12-13,16H2,1-4H3;(H,3,4)(H,5,6)

> <PUBCHEM_IUPAC_INCHIKEY>
QNXWXRJJUVWBSY-UHFFFAOYSA-N

> <PUBCHEM_IUPAC_NAME>
N-benzyl-N-methyl-4-(2,3,5-trimethylphenoxy)butan-1-amine; oxalic acid

> <PUBCHEM_IUPAC_OPENEYE_NAME>
N-benzyl-N-methyl-4-(2,3,5-trimethylphenoxy)butan-1-amine; oxalic acid

> <PUBCHEM_IUPAC_SYSTEMATIC_NAME>
ethanedioic acid; N-methyl-N-(phenylmethyl)-4-(2,3,5-trimethylphenoxy)butan-1-amine

> <PUBCHEM_IUPAC_TRADITIONAL_NAME>
benzyl-methyl-[4-(2,3,5-trimethylphenoxy)butyl]amine; oxalic acid

> <PUBCHEM_MOLECULAR_FORMULA>
C23H31NO5

> <PUBCHEM_MOLECULAR_WEIGHT>
401.49594

> <PUBCHEM_MONOISOTOPIC_WEIGHT>
401.220223

> <PUBCHEM_OPENEYE_CAN_SMILES>
CC1=CC(=C(C(=C1)OCCCCN(C)CC2=CC=CC=C2)C)C.C(=O)(C(=O)O)O

> <PUBCHEM_OPENEYE_ISO_SMILES>
CC1=CC(=C(C(=C1)OCCCCN(C)CC2=CC=CC=C2)C)C.C(=O)(C(=O)O)O

> <PUBCHEM_TOTAL_CHARGE>
0

$$$$
Largest isolated from Written by BCL::WriteToMDL,2850095
JMcorina  04211410293D 1   1.00000     0.00000 
CORINA 3.49 0026  01.06.2011
 37 39  0  0  0  0  0  0  0  0999 V2000
   -0.0218    1.7577    0.0117 S   0  0  0  1  0  0  0  0  0  0  0  0
    2.5212    0.9751    3.3111 O   0  5  0  1  0  0  0  0  0  0  0  0
    0.6495    0.9944    2.3380 O   0  0  0  1  0  0  0  0  0  0  0  0
    6.5538    2.6397    0.9620 O   0  5  0  1  0  0  0  0  0  0  0  0
    6.4029    3.3685   -1.0120 O   0  0  0  1  0  0  0  0  0  0  0  0
   -1.0854   -0.8099   -0.1871 N   0  0  0  1  0  0  0  0  0  0  0  0
    1.0670   -0.7214   -0.4375 N   0  0  0  1  0  0  0  0  0  0  0  0
    1.8456    1.2240    2.3286 N   0  3  0  1  0  0  0  0  0  0  0  0
    5.8803    2.8894   -0.0216 N   0  3  0  1  0  0  0  0  0  0  0  0
   -2.4764   -0.4073    0.0343 C   0  0  0  1  0  0  0  0  0  0  0  0
   -3.0875    0.0279   -1.2727 C   0  0  0  1  0  0  0  0  0  0  0  0
    0.0005    0.0104   -0.2141 C   0  0  0  1  0  0  0  0  0  0  0  0
   -0.6279   -2.0901   -0.4013 C   0  0  0  1  0  0  0  0  0  0  0  0
    1.7086    2.0897    0.0020 C   0  0  0  1  0  0  0  0  0  0  0  0
   -3.7259   -0.8960   -2.0788 C   0  0  0  1  0  0  0  0  0  0  0  0
   -3.0146    1.3521   -1.6628 C   0  0  0  1  0  0  0  0  0  0  0  0
    2.4784    1.8055    1.1231 C   0  0  0  1  0  0  0  0  0  0  0  0
    0.7050   -2.0095   -0.5552 C   0  0  0  1  0  0  0  0  0  0  0  0
    2.3076    2.6310   -1.1292 C   0  0  0  1  0  0  0  0  0  0  0  0
    3.8345    2.0665    1.1118 C   0  0  0  1  0  0  0  0  0  0  0  0
    4.4262    2.6105   -0.0134 C   0  0  0  1  0  0  0  0  0  0  0  0
    3.6638    2.8894   -1.1335 C   0  0  0  1  0  0  0  0  0  0  0  0
   -4.2864   -0.4968   -3.2777 C   0  0  0  1  0  0  0  0  0  0  0  0
   -3.5752    1.7513   -2.8616 C   0  0  0  1  0  0  0  0  0  0  0  0
   -4.2090    0.8264   -3.6702 C   0  0  0  1  0  0  0  0  0  0  0  0
   -3.0391   -1.2501    0.4357 H   0  0  0  1  0  0  0  0  0  0  0  0
   -2.5067    0.4203    0.7430 H   0  0  0  1  0  0  0  0  0  0  0  0
   -1.2260   -2.9886   -0.4383 H   0  0  0  1  0  0  0  0  0  0  0  0
   -3.7864   -1.9297   -1.7721 H   0  0  0  1  0  0  0  0  0  0  0  0
   -2.5201    2.0748   -1.0307 H   0  0  0  1  0  0  0  0  0  0  0  0
    1.3711   -2.8389   -0.7420 H   0  0  0  1  0  0  0  0  0  0  0  0
    1.7130    2.8490   -2.0040 H   0  0  0  1  0  0  0  0  0  0  0  0
    4.4336    1.8458    1.9829 H   0  0  0  1  0  0  0  0  0  0  0  0
    4.1300    3.3101   -2.0122 H   0  0  0  1  0  0  0  0  0  0  0  0
   -4.7846   -1.2187   -3.9078 H   0  0  0  1  0  0  0  0  0  0  0  0
   -3.5185    2.7859   -3.1662 H   0  0  0  1  0  0  0  0  0  0  0  0
   -4.6466    1.1382   -4.6071 H   0  0  0  1  0  0  0  0  0  0  0  0
  1 12  1  0  0  0  0
  1 14  1  0  0  0  0
  2  8  1  0  0  0  0
  3  8  2  0  0  0  0
  4  9  1  0  0  0  0
  5  9  2  0  0  0  0
  6 10  1  0  0  0  0
  6 12  4  0  0  0  0
  6 13  4  0  0  0  0
  7 12  4  0  0  0  0
  7 18  4  0  0  0  0
  8 17  1  0  0  0  0
  9 21  1  0  0  0  0
 10 11  1  0  0  0  0
 10 26  1  0  0  0  0
 10 27  1  0  0  0  0
 11 15  4  0  0  0  0
 11 16  4  0  0  0  0
 13 18  4  0  0  0  0
 13 28  1  0  0  0  0
 14 17  4  0  0  0  0
 14 19  4  0  0  0  0
 15 23  4  0  0  0  0
 15 29  1  0  0  0  0
 16 24  4  0  0  0  0
 16 30  1  0  0  0  0
 17 20  4  0  0  0  0
 18 31  1  0  0  0  0
 19 22  4  0  0  0  0
 19 32  1  0  0  0  0
 20 21  4  0  0  0  0
 20 33  1  0  0  0  0
 21 22  4  0  0  0  0
 22 34  1  0  0  0  0
 23 25  4  0  0  0  0
 23 35  1  0  0  0  0
 24 25  4  0  0  0  0
 24 36  1  0  0  0  0
 25 37  1  0  0  0  0
M  END
> <Activity>
0.01

> <Mapped(file=2032.csv.activities,property=Cached(PUBCHEM_COMPOUND_CID))>
100

> <MatchIndices>
104 

> <PUBCHEM_ATOM_DEF_STEREO_COUNT>
0

> <PUBCHEM_ATOM_UDEF_STEREO_COUNT>
0

> <PUBCHEM_BONDANNOTATIONS>
11  15  8
11  16  8
13  18  8
14  17  8
14  19  8
15  23  8
16  24  8
17  20  8
19  22  8
20  21  8
21  22  8
23  25  8
24  25  8
6  12  8
6  13  8
7  12  8
7  18  8

> <PUBCHEM_BOND_DEF_STEREO_COUNT>
0

> <PUBCHEM_BOND_UDEF_STEREO_COUNT>
0

> <PUBCHEM_CACTVS_COMPLEXITY>
478

> <PUBCHEM_CACTVS_HBOND_ACCEPTOR>
5

> <PUBCHEM_CACTVS_HBOND_DONOR>
0

> <PUBCHEM_CACTVS_ROTATABLE_BOND>
4

> <PUBCHEM_CACTVS_SUBSKEYS>
AAADccB7uABAAAAAAAAAAAAAAAAAAWAAAAAwYAAAAAAAAAAB0AAAHAQEAAAADAjBWgQ90ZccUAihAjRnZwCC0C1xGrApyBwYdIqIaCKg2dGUIAhogAKIyCcQgAAOAAQAAAQAAQAACAAACAACAAAAAAAAAA==

> <PUBCHEM_CACTVS_TAUTO_COUNT>
1

> <PUBCHEM_CACTVS_TPSA>
135

> <PUBCHEM_COMPONENT_COUNT>
1

> <PUBCHEM_COMPOUND_CANONICALIZED>
1

> <PUBCHEM_COMPOUND_CID>
2850095

> <PUBCHEM_COORDINATE_TYPE>
1
5
255

> <PUBCHEM_EXACT_MASS>
356.057926

> <PUBCHEM_HEAVY_ATOM_COUNT>
25

> <PUBCHEM_ISOTOPIC_ATOM_COUNT>
0

> <PUBCHEM_IUPAC_CAS_NAME>
2-[(2,4-dinitrophenyl)thio]-1-(phenylmethyl)imidazole

> <PUBCHEM_IUPAC_INCHI>
InChI=1S/C16H12N4O4S/c21-19(22)13-6-7-15(14(10-13)20(23)24)25-16-17-8-9-18(16)11-12-4-2-1-3-5-12/h1-10H,11H2

> <PUBCHEM_IUPAC_INCHIKEY>
CYDYZLAMHRNBAH-UHFFFAOYSA-N

> <PUBCHEM_IUPAC_NAME>
1-benzyl-2-(2,4-dinitrophenyl)sulfanylimidazole

> <PUBCHEM_IUPAC_OPENEYE_NAME>
1-benzyl-2-(2,4-dinitrophenyl)sulfanyl-imidazole

> <PUBCHEM_IUPAC_SYSTEMATIC_NAME>
2-(2,4-dinitrophenyl)sulfanyl-1-(phenylmethyl)imidazole

> <PUBCHEM_IUPAC_TRADITIONAL_NAME>
1-benzyl-2-[(2,4-dinitrophenyl)thio]imidazole

> <PUBCHEM_MOLECULAR_FORMULA>
C16H12N4O4S

> <PUBCHEM_MOLECULAR_WEIGHT>
356.35588

> <PUBCHEM_MONOISOTOPIC_WEIGHT>
356.057926

> <PUBCHEM_OPENEYE_CAN_SMILES>
C1=CC=C(C=C1)CN2C=CN=C2SC3=C(C=C(C=C3)[N+](=O)[O-])[N+](=O)[O-]

> <PUBCHEM_OPENEYE_ISO_SMILES>
C1=CC=C(C=C1)CN2C=CN=C2SC3=C(C=C(C=C3)[N+](=O)[O-])[N+](=O)[O-]

> <PUBCHEM_TOTAL_CHARGE>
0

> <PUBCHEM_XLOGP3_AA>
3.7

$$$$
Largest isolated from Written by BCL::WriteToMDL,776996
JMcorina  04211410293D 1   1.00000     0.00000 
CORINA 3.49 0026  01.06.2011
 45 47  0  0  0  0  0  0  0  0999 V2000
   -0.0164    1.3546    0.0095 O   0  0  0  1  0  0  0  0  0  0  0  0
   -5.6034   -2.8552   -8.1176 O   0  0  0  1  0  0  0  0  0  0  0  0
   -2.9440   -2.5947   -2.4376 N   0  0  0  1  0  0  0  0  0  0  0  0
   -2.5507   -2.6863   -1.0252 C   0  0  0  1  0  0  0  0  0  0  0  0
   -4.2191   -3.2845   -2.6748 C   0  0  0  1  0  0  0  0  0  0  0  0
   -1.2413   -1.9689   -0.8209 C   0  0  0  1  0  0  0  0  0  0  0  0
   -4.5892   -3.1695   -4.1311 C   0  0  0  1  0  0  0  0  0  0  0  0
   -1.2332   -0.6263   -0.4969 C   0  0  0  1  0  0  0  0  0  0  0  0
   -0.0488   -2.6569   -0.9523 C   0  0  0  1  0  0  0  0  0  0  0  0
   -0.0270    0.0337   -0.3089 C   0  0  0  1  0  0  0  0  0  0  0  0
   -4.1663   -4.1323   -5.0288 C   0  0  0  1  0  0  0  0  0  0  0  0
   -5.3558   -2.1043   -4.5663 C   0  0  0  1  0  0  0  0  0  0  0  0
    1.1542   -2.0018   -0.7656 C   0  0  0  1  0  0  0  0  0  0  0  0
    1.1680   -0.6575   -0.4470 C   0  0  0  1  0  0  0  0  0  0  0  0
   -4.5046   -4.0294   -6.3642 C   0  0  0  1  0  0  0  0  0  0  0  0
   -5.6968   -1.9968   -5.9007 C   0  0  0  1  0  0  0  0  0  0  0  0
   -5.2693   -2.9588   -6.8043 C   0  0  0  1  0  0  0  0  0  0  0  0
   -1.2110    1.9878    0.1451 C   0  0  0  1  0  0  0  0  0  0  0  0
   -1.8385    2.0305    1.3819 C   0  0  0  1  0  0  0  0  0  0  0  0
   -1.8027    2.5978   -0.9518 C   0  0  0  1  0  0  0  0  0  0  0  0
   -3.0527    2.6752    1.5172 C   0  0  0  1  0  0  0  0  0  0  0  0
   -3.0170    3.2412   -0.8111 C   0  0  0  1  0  0  0  0  0  0  0  0
   -3.6429    3.2773    0.4213 C   0  0  0  1  0  0  0  0  0  0  0  0
   -6.3926   -1.7267   -8.4992 C   0  0  0  1  0  0  0  0  0  0  0  0
   -3.3184   -2.2253   -0.4037 H   0  0  0  1  0  0  0  0  0  0  0  0
   -2.4384   -3.7340   -0.7465 H   0  0  0  1  0  0  0  0  0  0  0  0
   -4.1183   -4.3364   -2.4075 H   0  0  0  1  0  0  0  0  0  0  0  0
   -4.9983   -2.8277   -2.0647 H   0  0  0  1  0  0  0  0  0  0  0  0
   -2.9920   -1.6327   -2.7380 H   0  0  0  1  0  0  0  0  0  0  0  0
   -2.1649   -0.0905   -0.3903 H   0  0  0  1  0  0  0  0  0  0  0  0
   -0.0574   -3.7078   -1.2010 H   0  0  0  1  0  0  0  0  0  0  0  0
   -3.5708   -4.9654   -4.6858 H   0  0  0  1  0  0  0  0  0  0  0  0
   -5.6886   -1.3559   -3.8624 H   0  0  0  1  0  0  0  0  0  0  0  0
    2.0841   -2.5414   -0.8685 H   0  0  0  1  0  0  0  0  0  0  0  0
    2.1080   -0.1462   -0.3012 H   0  0  0  1  0  0  0  0  0  0  0  0
   -4.1738   -4.7815   -7.0651 H   0  0  0  1  0  0  0  0  0  0  0  0
   -6.2959   -1.1648   -6.2401 H   0  0  0  1  0  0  0  0  0  0  0  0
   -1.3782    1.5598    2.2380 H   0  0  0  1  0  0  0  0  0  0  0  0
   -1.3142    2.5698   -1.9146 H   0  0  0  1  0  0  0  0  0  0  0  0
   -3.5415    2.7088    2.4796 H   0  0  0  1  0  0  0  0  0  0  0  0
   -3.4778    3.7164   -1.6645 H   0  0  0  1  0  0  0  0  0  0  0  0
   -4.5926    3.7803    0.5290 H   0  0  0  1  0  0  0  0  0  0  0  0
   -7.3380   -1.7444   -7.9570 H   0  0  0  1  0  0  0  0  0  0  0  0
   -5.8541   -0.8095   -8.2608 H   0  0  0  1  0  0  0  0  0  0  0  0
   -6.5876   -1.7654   -9.5709 H   0  0  0  1  0  0  0  0  0  0  0  0
  1 10  1  0  0  0  0
  1 18  1  0  0  0  0
  2 17  1  0  0  0  0
  2 24  1  0  0  0  0
  3  4  1  0  0  0  0
  3  5  1  0  0  0  0
  3 29  1  0  0  0  0
  4  6  1  0  0  0  0
  4 25  1  0  0  0  0
  4 26  1  0  0  0  0
  5  7  1  0  0  0  0
  5 27  1  0  0  0  0
  5 28  1  0  0  0  0
  6  8  4  0  0  0  0
  6  9  4  0  0  0  0
  7 11  4  0  0  0  0
  7 12  4  0  0  0  0
  8 10  4  0  0  0  0
  8 30  1  0  0  0  0
  9 13  4  0  0  0  0
  9 31  1  0  0  0  0
 10 14  4  0  0  0  0
 11 15  4  0  0  0  0
 11 32  1  0  0  0  0
 12 16  4  0  0  0  0
 12 33  1  0  0  0  0
 13 14  4  0  0  0  0
 13 34  1  0  0  0  0
 14 35  1  0  0  0  0
 15 17  4  0  0  0  0
 15 36  1  0  0  0  0
 16 17  4  0  0  0  0
 16 37  1  0  0  0  0
 18 19  4  0  0  0  0
 18 20  4  0  0  0  0
 19 21  4  0  0  0  0
 19 38  1  0  0  0  0
 20 22  4  0  0  0  0
 20 39  1  0  0  0  0
 21 23  4  0  0  0  0
 21 40  1  0  0  0  0
 22 23  4  0  0  0  0
 22 41  1  0  0  0  0
 23 42  1  0  0  0  0
 24 43  1  0  0  0  0
 24 44  1  0  0  0  0
 24 45  1  0  0  0  0
M  END
> <Activity>
0.01

> <Mapped(file=2032.csv.activities,property=Cached(PUBCHEM_COMPOUND_CID))>
100

> <MatchIndices>
1 

> <PUBCHEM_ATOM_DEF_STEREO_COUNT>
0

> <PUBCHEM_ATOM_UDEF_STEREO_COUNT>
0

> <PUBCHEM_BONDANNOTATIONS>
10  14  8
11  15  8
12  16  8
13  14  8
15  17  8
16  17  8
18  19  8
18  20  8
19  21  8
20  22  8
21  23  8
22  23  8
6  8  8
6  9  8
7  11  8
7  12  8
8  10  8
9  13  8

> <PUBCHEM_BOND_DEF_STEREO_COUNT>
0

> <PUBCHEM_BOND_UDEF_STEREO_COUNT>
0

> <PUBCHEM_CACTVS_COMPLEXITY>
335

> <PUBCHEM_CACTVS_HBOND_ACCEPTOR>
3

> <PUBCHEM_CACTVS_HBOND_DONOR>
1

> <PUBCHEM_CACTVS_ROTATABLE_BOND>
7

> <PUBCHEM_CACTVS_SUBSKEYS>
AAADceB6MAAAAAAAAAAAAAAAAAAAAAAAAAAwYMAAAAAAAAABUAAAHgAQAAAADATBmAYyBoLABACAAiBCAACCCAAgIAAIiIAODIgMJiKEsRuGOCjkwBGIqAew0BIOIAABAAAAAABAAAIAAAAAAAAAAAAAAA==

> <PUBCHEM_CACTVS_TAUTO_COUNT>
1

> <PUBCHEM_CACTVS_TPSA>
30.5

> <PUBCHEM_COMPONENT_COUNT>
1

> <PUBCHEM_COMPOUND_CANONICALIZED>
1

> <PUBCHEM_COMPOUND_CID>
776996

> <PUBCHEM_COORDINATE_TYPE>
1
5
255

> <PUBCHEM_EXACT_MASS>
319.157229

> <PUBCHEM_HEAVY_ATOM_COUNT>
24

> <PUBCHEM_ISOTOPIC_ATOM_COUNT>
0

> <PUBCHEM_IUPAC_CAS_NAME>
1-(4-methoxyphenyl)-N-[(3-phenoxyphenyl)methyl]methanamine

> <PUBCHEM_IUPAC_INCHI>
InChI=1S/C21H21NO2/c1-23-19-12-10-17(11-13-19)15-22-16-18-6-5-9-21(14-18)24-20-7-3-2-4-8-20/h2-14,22H,15-16H2,1H3

> <PUBCHEM_IUPAC_INCHIKEY>
IRZTVIUZJPYVAW-UHFFFAOYSA-N

> <PUBCHEM_IUPAC_NAME>
1-(4-methoxyphenyl)-N-[(3-phenoxyphenyl)methyl]methanamine

> <PUBCHEM_IUPAC_OPENEYE_NAME>
1-(4-methoxyphenyl)-N-[(3-phenoxyphenyl)methyl]methanamine

> <PUBCHEM_IUPAC_SYSTEMATIC_NAME>
1-(4-methoxyphenyl)-N-[(3-phenoxyphenyl)methyl]methanamine

> <PUBCHEM_IUPAC_TRADITIONAL_NAME>
p-anisyl-(3-phenoxybenzyl)amine

> <PUBCHEM_MOLECULAR_FORMULA>
C21H21NO2

> <PUBCHEM_MOLECULAR_WEIGHT>
319.39694

> <PUBCHEM_MONOISOTOPIC_WEIGHT>
319.157229

> <PUBCHEM_OPENEYE_CAN_SMILES>
COC1=CC=C(C=C1)CNCC2=CC(=CC=C2)OC3=CC=CC=C3

> <PUBCHEM_OPENEYE_ISO_SMILES>
COC1=CC=C(C=C1)CNCC2=CC(=CC=C2)OC3=CC=CC=C3

> <PUBCHEM_TOTAL_CHARGE>
0

> <PUBCHEM_XLOGP3>
4.2

$$$$
Largest isolated from Written by BCL::WriteToMDL,1225417
JMcorina  04211410293D 1   1.00000     0.00000 
CORINA 3.49 0026  01.06.2011
 39 41  0  0  0  0  0  0  0  0999 V2000
   -3.8163   -2.0162    3.6774 Cl  0  0  0  1  0  0  0  0  0  0  0  0
    0.2325    1.2932   -0.2264 O   0  0  0  1  0  0  0  0  0  0  0  0
    2.8773    3.6872    0.0911 O   0  0  0  1  0  0  0  0  0  0  0  0
   -1.2009   -1.4497    0.8775 N   0  0  0  1  0  0  0  0  0  0  0  0
    0.7111    4.1774    0.0173 N   0  0  0  1  0  0  0  0  0  0  0  0
   -0.3865   -2.0013    1.8750 N   0  0  0  1  0  0  0  0  0  0  0  0
   -0.7638   -1.0244   -0.4545 C   0  0  0  1  0  0  0  0  0  0  0  0
    0.3661   -0.0362   -0.3207 C   0  0  0  1  0  0  0  0  0  0  0  0
    0.9770    5.5500    0.0395 C   0  0  0  1  0  0  0  0  0  0  0  0
    0.1361    6.4326   -0.6257 C   0  0  0  1  0  0  0  0  0  0  0  0
    1.4525    1.8593   -0.1205 C   0  0  0  1  0  0  0  0  0  0  0  0
    1.5035    8.2661    0.0830 C   0  0  0  1  0  0  0  0  0  0  0  0
    1.6808   -0.3454   -0.2765 C   0  0  0  1  0  0  0  0  0  0  0  0
    0.4017    7.7879   -0.6018 C   0  0  0  1  0  0  0  0  0  0  0  0
    2.0797    6.0343    0.7318 C   0  0  0  1  0  0  0  0  0  0  0  0
    2.3850    0.8620   -0.1484 C   0  0  0  1  0  0  0  0  0  0  0  0
    1.7289    3.2940    0.0024 C   0  0  0  1  0  0  0  0  0  0  0  0
    2.3395    7.3904    0.7517 C   0  0  0  1  0  0  0  0  0  0  0  0
   -1.0645    5.9123   -1.3732 C   0  0  0  1  0  0  0  0  0  0  0  0
   -2.4611   -1.3848    1.3586 C   0  0  0  1  0  0  0  0  0  0  0  0
    1.7904    9.7454    0.1065 C   0  0  0  1  0  0  0  0  0  0  0  0
   -2.4471   -1.8785    2.6190 C   0  0  0  1  0  0  0  0  0  0  0  0
   -1.1329   -2.2534    2.9197 C   0  0  0  1  0  0  0  0  0  0  0  0
   -0.4227   -1.8920   -1.0193 H   0  0  0  1  0  0  0  0  0  0  0  0
   -1.5970   -0.5550   -0.9776 H   0  0  0  1  0  0  0  0  0  0  0  0
    2.1091   -1.3354   -0.3293 H   0  0  0  1  0  0  0  0  0  0  0  0
   -0.2518    8.4749   -1.1190 H   0  0  0  1  0  0  0  0  0  0  0  0
   -0.2058    3.8611    0.0126 H   0  0  0  1  0  0  0  0  0  0  0  0
    3.4567    0.9795   -0.0846 H   0  0  0  1  0  0  0  0  0  0  0  0
    2.7329    5.3511    1.2542 H   0  0  0  1  0  0  0  0  0  0  0  0
    3.1994    7.7671    1.2858 H   0  0  0  1  0  0  0  0  0  0  0  0
   -1.9245    5.8833   -0.7042 H   0  0  0  1  0  0  0  0  0  0  0  0
   -1.2811    6.5696   -2.2153 H   0  0  0  1  0  0  0  0  0  0  0  0
   -0.8561    4.9075   -1.7409 H   0  0  0  1  0  0  0  0  0  0  0  0
   -3.3250   -1.0065    0.8323 H   0  0  0  1  0  0  0  0  0  0  0  0
    1.2895   10.1991    0.9617 H   0  0  0  1  0  0  0  0  0  0  0  0
    2.8655    9.9057    0.1881 H   0  0  0  1  0  0  0  0  0  0  0  0
    1.4239   10.2012   -0.8132 H   0  0  0  1  0  0  0  0  0  0  0  0
   -0.7943   -2.6825    3.8511 H   0  0  0  1  0  0  0  0  0  0  0  0
  1 22  1  0  0  0  0
  2  8  4  0  0  0  0
  2 11  4  0  0  0  0
  3 17  2  0  0  0  0
  4  6  4  0  0  0  0
  4  7  1  0  0  0  0
  4 20  4  0  0  0  0
  5  9  1  0  0  0  0
  5 17  1  0  0  0  0
  5 28  1  0  0  0  0
  6 23  4  0  0  0  0
  7  8  1  0  0  0  0
  7 24  1  0  0  0  0
  7 25  1  0  0  0  0
  8 13  4  0  0  0  0
  9 10  4  0  0  0  0
  9 15  4  0  0  0  0
 10 14  4  0  0  0  0
 10 19  1  0  0  0  0
 11 16  4  0  0  0  0
 11 17  1  0  0  0  0
 12 14  4  0  0  0  0
 12 18  4  0  0  0  0
 12 21  1  0  0  0  0
 13 16  4  0  0  0  0
 13 26  1  0  0  0  0
 14 27  1  0  0  0  0
 15 18  4  0  0  0  0
 15 30  1  0  0  0  0
 16 29  1  0  0  0  0
 18 31  1  0  0  0  0
 19 32  1  0  0  0  0
 19 33  1  0  0  0  0
 19 34  1  0  0  0  0
 20 22  4  0  0  0  0
 20 35  1  0  0  0  0
 21 36  1  0  0  0  0
 21 37  1  0  0  0  0
 21 38  1  0  0  0  0
 22 23  4  0  0  0  0
 23 39  1  0  0  0  0
M  END
> <Activity>
0.01

> <Mapped(file=2032.csv.activities,property=Cached(PUBCHEM_COMPOUND_CID))>
100

> <MatchIndices>
55 

> <PUBCHEM_ATOM_DEF_STEREO_COUNT>
0

> <PUBCHEM_ATOM_UDEF_STEREO_COUNT>
0

> <PUBCHEM_BONDANNOTATIONS>
10  14  8
11  16  8
12  14  8
12  18  8
13  16  8
15  18  8
2  11  8
2  8  8
20  22  8
22  23  8
4  20  8
4  6  8
6  23  8
8  13  8
9  10  8
9  15  8

> <PUBCHEM_BOND_DEF_STEREO_COUNT>
0

> <PUBCHEM_BOND_UDEF_STEREO_COUNT>
0

> <PUBCHEM_CACTVS_COMPLEXITY>
423

> <PUBCHEM_CACTVS_HBOND_ACCEPTOR>
3

> <PUBCHEM_CACTVS_HBOND_DONOR>
1

> <PUBCHEM_CACTVS_ROTATABLE_BOND>
4

> <PUBCHEM_CACTVS_SUBSKEYS>
AAADceB7MAAEAAAAAAAAAAAAAAAAAWJAAAAwAAAAAAAAAAAB8AAAHgIYAAAADA7BmiQ+xJLIBECqArV3VAKSDAA1owAY2CHubNgOJrLE9f/HvSjk3BHY6YeYn0JuCAACAAACAAAQAAQAAAQAAAAAAAAAAA==

> <PUBCHEM_CACTVS_TAUTO_COUNT>
2

> <PUBCHEM_CACTVS_TPSA>
60.1

> <PUBCHEM_COMPONENT_COUNT>
1

> <PUBCHEM_COMPOUND_CANONICALIZED>
1

> <PUBCHEM_COMPOUND_CID>
1225417

> <PUBCHEM_COORDINATE_TYPE>
1
5
255

> <PUBCHEM_EXACT_MASS>
329.093104

> <PUBCHEM_HEAVY_ATOM_COUNT>
23

> <PUBCHEM_ISOTOPIC_ATOM_COUNT>
0

> <PUBCHEM_IUPAC_CAS_NAME>
5-[(4-chloro-1-pyrazolyl)methyl]-N-(2,4-dimethylphenyl)-2-furancarboxamide

> <PUBCHEM_IUPAC_INCHI>
InChI=1S/C17H16ClN3O2/c1-11-3-5-15(12(2)7-11)20-17(22)16-6-4-14(23-16)10-21-9-13(18)8-19-21/h3-9H,10H2,1-2H3,(H,20,22)

> <PUBCHEM_IUPAC_INCHIKEY>
JVFJDPOIFJJDQP-UHFFFAOYSA-N

> <PUBCHEM_IUPAC_NAME>
5-[(4-chloropyrazol-1-yl)methyl]-N-(2,4-dimethylphenyl)furan-2-carboxamide

> <PUBCHEM_IUPAC_OPENEYE_NAME>
5-[(4-chloropyrazol-1-yl)methyl]-N-(2,4-dimethylphenyl)furan-2-carboxamide

> <PUBCHEM_IUPAC_SYSTEMATIC_NAME>
5-[(4-chloranylpyrazol-1-yl)methyl]-N-(2,4-dimethylphenyl)furan-2-carboxamide

> <PUBCHEM_IUPAC_TRADITIONAL_NAME>
5-[(4-chloropyrazol-1-yl)methyl]-N-(2,4-dimethylphenyl)-2-furamide

> <PUBCHEM_MOLECULAR_FORMULA>
C17H16ClN3O2

> <PUBCHEM_MOLECULAR_WEIGHT>
329.78084

> <PUBCHEM_MONOISOTOPIC_WEIGHT>
329.093104

> <PUBCHEM_OPENEYE_CAN_SMILES>
CC1=CC(=C(C=C1)NC(=O)C2=CC=C(O2)CN3C=C(C=N3)Cl)C

> <PUBCHEM_OPENEYE_ISO_SMILES>
CC1=CC(=C(C=C1)NC(=O)C2=CC=C(O2)CN3C=C(C=N3)Cl)C

> <PUBCHEM_TOTAL_CHARGE>
0

> <PUBCHEM_XLOGP3_AA>
3.5

$$$$
Largest isolated from Written by BCL::WriteToMDL,6911430
JMcorina  04211410293D 1   1.00000     0.00000 
CORINA 3.49 0026  01.06.2011
 41 43  0  0  0  0  0  0  0  0999 V2000
   -0.0164    1.3547    0.0095 O   0  0  0  1  0  0  0  0  0  0  0  0
   -6.5030  -10.1298    1.1891 O   0  0  0  1  0  0  0  0  0  0  0  0
   -2.8757   -6.6778    0.6835 O   0  0  0  1  0  0  0  0  0  0  0  0
   -3.8718   -4.6926    0.6658 N   0  0  0  1  0  0  0  0  0  0  0  0
   -2.6447   -4.0316    0.5235 N   0  0  0  1  0  0  0  0  0  0  0  0
   -0.0606   -0.0014    0.0850 C   0  0  0  1  0  0  0  0  0  0  0  0
   -1.3182   -2.0405    0.3022 C   0  0  0  1  0  0  0  0  0  0  0  0
   -1.2775   -0.6473    0.2251 C   0  0  0  1  0  0  0  0  0  0  0  0
    1.1139   -0.7389    0.0160 C   0  0  0  1  0  0  0  0  0  0  0  0
   -0.1302   -2.7733    0.2370 C   0  0  0  1  0  0  0  0  0  0  0  0
   -5.2025   -6.7351    0.8902 C   0  0  0  1  0  0  0  0  0  0  0  0
   -0.3582    2.0667    1.1152 C   0  0  0  1  0  0  0  0  0  0  0  0
    1.0756   -2.1192    0.0923 C   0  0  0  1  0  0  0  0  0  0  0  0
   -2.6099   -2.7363    0.4520 C   0  0  0  1  0  0  0  0  0  0  0  0
   -5.2429   -8.1275    0.9673 C   0  0  0  1  0  0  0  0  0  0  0  0
   -6.3890   -6.0023    0.9611 C   0  0  0  1  0  0  0  0  0  0  0  0
   -0.6150    1.4121    2.3114 C   0  0  0  1  0  0  0  0  0  0  0  0
   -0.4457    3.4501    1.0515 C   0  0  0  1  0  0  0  0  0  0  0  0
   -3.9080   -6.0378    0.7400 C   0  0  0  1  0  0  0  0  0  0  0  0
   -6.4591   -8.7735    1.1136 C   0  0  0  1  0  0  0  0  0  0  0  0
   -7.5950   -6.6562    1.1068 C   0  0  0  1  0  0  0  0  0  0  0  0
   -7.6334   -8.0365    1.1827 C   0  0  0  1  0  0  0  0  0  0  0  0
   -0.9619    2.1383    3.4341 C   0  0  0  1  0  0  0  0  0  0  0  0
   -0.7929    4.1715    2.1772 C   0  0  0  1  0  0  0  0  0  0  0  0
   -1.0534    3.5164    3.3666 C   0  0  0  1  0  0  0  0  0  0  0  0
   -2.1921   -0.0751    0.2748 H   0  0  0  1  0  0  0  0  0  0  0  0
    2.0611   -0.2326   -0.0980 H   0  0  0  1  0  0  0  0  0  0  0  0
   -0.1563   -3.8514    0.2962 H   0  0  0  1  0  0  0  0  0  0  0  0
    1.9928   -2.6868    0.0379 H   0  0  0  1  0  0  0  0  0  0  0  0
   -3.5268   -2.1678    0.5022 H   0  0  0  1  0  0  0  0  0  0  0  0
   -4.3286   -8.6998    0.9127 H   0  0  0  1  0  0  0  0  0  0  0  0
   -6.3626   -4.9242    0.9022 H   0  0  0  1  0  0  0  0  0  0  0  0
   -0.5440    0.3358    2.3646 H   0  0  0  1  0  0  0  0  0  0  0  0
   -0.2420    3.9623    0.1228 H   0  0  0  1  0  0  0  0  0  0  0  0
   -8.5120   -6.0883    1.1619 H   0  0  0  1  0  0  0  0  0  0  0  0
   -8.5805   -8.5429    1.2964 H   0  0  0  1  0  0  0  0  0  0  0  0
   -1.1621    1.6293    4.3654 H   0  0  0  1  0  0  0  0  0  0  0  0
   -0.8611    5.2482    2.1281 H   0  0  0  1  0  0  0  0  0  0  0  0
   -4.6953   -4.1820    0.7109 H   0  0  0  1  0  0  0  0  0  0  0  0
   -1.3248    4.0823    4.2455 H   0  0  0  1  0  0  0  0  0  0  0  0
   -6.4346  -10.4760    2.0894 H   0  0  0  1  0  0  0  0  0  0  0  0
  1  6  1  0  0  0  0
  1 12  1  0  0  0  0
  2 20  1  0  0  0  0
  2 41  1  0  0  0  0
  3 19  2  0  0  0  0
  4  5  1  0  0  0  0
  4 19  1  0  0  0  0
  4 39  1  0  0  0  0
  5 14  2  0  0  0  0
  6  8  4  0  0  0  0
  6  9  4  0  0  0  0
  7  8  4  0  0  0  0
  7 10  4  0  0  0  0
  7 14  1  0  0  0  0
  8 26  1  0  0  0  0
  9 13  4  0  0  0  0
  9 27  1  0  0  0  0
 10 13  4  0  0  0  0
 10 28  1  0  0  0  0
 11 15  4  0  0  0  0
 11 16  4  0  0  0  0
 11 19  1  0  0  0  0
 12 17  4  0  0  0  0
 12 18  4  0  0  0  0
 13 29  1  0  0  0  0
 14 30  1  0  0  0  0
 15 20  4  0  0  0  0
 15 31  1  0  0  0  0
 16 21  4  0  0  0  0
 16 32  1  0  0  0  0
 17 23  4  0  0  0  0
 17 33  1  0  0  0  0
 18 24  4  0  0  0  0
 18 34  1  0  0  0  0
 20 22  4  0  0  0  0
 21 22  4  0  0  0  0
 21 35  1  0  0  0  0
 22 36  1  0  0  0  0
 23 25  4  0  0  0  0
 23 37  1  0  0  0  0
 24 25  4  0  0  0  0
 24 38  1  0  0  0  0
 25 40  1  0  0  0  0
M  END
> <Activity>
0.01

> <Mapped(file=2032.csv.activities,property=Cached(PUBCHEM_COMPOUND_CID))>
100

> <MatchIndices>
80 

> <PUBCHEM_ATOM_DEF_STEREO_COUNT>
0

> <PUBCHEM_ATOM_UDEF_STEREO_COUNT>
0

> <PUBCHEM_BONDANNOTATIONS>
10  13  8
11  15  8
11  16  8
12  17  8
12  18  8
15  20  8
16  21  8
17  23  8
18  24  8
20  22  8
21  22  8
23  25  8
24  25  8
6  8  8
6  9  8
7  10  8
7  8  8
9  13  8

> <PUBCHEM_BOND_DEF_STEREO_COUNT>
1

> <PUBCHEM_BOND_UDEF_STEREO_COUNT>
0

> <PUBCHEM_CACTVS_COMPLEXITY>
448

> <PUBCHEM_CACTVS_HBOND_ACCEPTOR>
4

> <PUBCHEM_CACTVS_HBOND_DONOR>
2

> <PUBCHEM_CACTVS_ROTATABLE_BOND>
5

> <PUBCHEM_CACTVS_SUBSKEYS>
AAADceB7MAAAAAAAAAAAAAAAAAAAAAAAAAAwYMAAAAAAAAABUAAAHgAYCAAADATBmAQwBoBiBgCoAjFzEACSCAAkIAAaiAEmDNgMJrKGtRuCeSDkyBEIuYe6yBCOAAABAAAAAAAAAAIAAAAAAAAAAAAAAA==

> <PUBCHEM_CACTVS_TAUTO_COUNT>
6

> <PUBCHEM_CACTVS_TPSA>
70.9

> <PUBCHEM_COMPONENT_COUNT>
1

> <PUBCHEM_COMPOUND_CANONICALIZED>
1

> <PUBCHEM_COMPOUND_CID>
6911430

> <PUBCHEM_COORDINATE_TYPE>
1
5
255

> <PUBCHEM_EXACT_MASS>
332.116092

> <PUBCHEM_HEAVY_ATOM_COUNT>
25

> <PUBCHEM_ISOTOPIC_ATOM_COUNT>
0

> <PUBCHEM_IUPAC_CAS_NAME>
3-hydroxy-N-[(E)-(3-phenoxyphenyl)methylideneamino]benzamide

> <PUBCHEM_IUPAC_INCHI>
InChI=1S/C20H16N2O3/c23-17-8-5-7-16(13-17)20(24)22-21-14-15-6-4-11-19(12-15)25-18-9-2-1-3-10-18/h1-14,23H,(H,22,24)/b21-14+

> <PUBCHEM_IUPAC_INCHIKEY>
NZNXWFXUGFQKDQ-KGENOOAVSA-N

> <PUBCHEM_IUPAC_NAME>
3-hydroxy-N-[(E)-(3-phenoxyphenyl)methylideneamino]benzamide

> <PUBCHEM_IUPAC_OPENEYE_NAME>
3-hydroxy-N-[(E)-(3-phenoxyphenyl)methyleneamino]benzamide

> <PUBCHEM_IUPAC_SYSTEMATIC_NAME>
3-oxidanyl-N-[(E)-(3-phenoxyphenyl)methylideneamino]benzamide

> <PUBCHEM_IUPAC_TRADITIONAL_NAME>
3-hydroxy-N-[(E)-(3-phenoxybenzylidene)amino]benzamide

> <PUBCHEM_MOLECULAR_FORMULA>
C20H16N2O3

> <PUBCHEM_MOLECULAR_WEIGHT>
332.35264

> <PUBCHEM_MONOISOTOPIC_WEIGHT>
332.116092

> <PUBCHEM_OPENEYE_CAN_SMILES>
C1=CC=C(C=C1)OC2=CC=CC(=C2)C=NNC(=O)C3=CC(=CC=C3)O

> <PUBCHEM_OPENEYE_ISO_SMILES>
C1=CC=C(C=C1)OC2=CC=CC(=C2)/C=N/NC(=O)C3=CC(=CC=C3)O

> <PUBCHEM_TOTAL_CHARGE>
0

> <PUBCHEM_XLOGP3>
3.7

$$$$
Largest isolated from Written by BCL::WriteToMDL,24789258
JMcorina  04211410293D 1   1.00000     0.00000 
CORINA 3.49 0026  01.06.2011
 61 64  0  0  0  0  0  0  0  0999 V2000
   -2.0537    4.1641    2.2596 F   0  0  0  1  0  0  0  0  0  0  0  0
   -0.0003    1.2672   -0.5884 O   0  0  0  1  0  0  0  0  0  0  0  0
    1.0332   -0.7016   -0.6006 O   0  0  0  1  0  0  0  0  0  0  0  0
   -2.3641   -2.7568    0.2487 N   0  0  0  1  0  0  0  0  0  0  0  0
   -3.6519   -0.9021   -0.3290 N   0  0  0  1  0  0  0  0  0  0  0  0
   -4.6871   -2.9572   -0.2055 N   0  0  0  1  0  0  0  0  0  0  0  0
   -8.8402   -1.8041   -0.2959 N   0  0  0  1  0  0  0  0  0  0  0  0
   -2.5103   -0.0013   -0.2254 C   0  0  0  1  0  0  0  0  0  0  0  0
   -1.1906   -2.0881    0.0123 C   0  0  0  1  0  0  0  0  0  0  0  0
   -1.2152   -0.7626   -0.2256 C   0  0  0  1  0  0  0  0  0  0  0  0
   -3.5626   -2.1734   -0.0995 C   0  0  0  1  0  0  0  0  0  0  0  0
   -2.3431   -4.0868    0.8626 C   0  0  0  1  0  0  0  0  0  0  0  0
   -2.6188    0.7883    1.0536 C   0  0  0  1  0  0  0  0  0  0  0  0
    0.1198   -2.8322    0.0192 C   0  0  0  1  0  0  0  0  0  0  0  0
   -2.4146   -3.9494    2.3616 C   0  0  0  1  0  0  0  0  0  0  0  0
   -5.9693   -2.3525   -0.5748 C   0  0  0  1  0  0  0  0  0  0  0  0
   -0.0048   -0.0780   -0.4798 C   0  0  0  1  0  0  0  0  0  0  0  0
   -2.2825    2.1284    1.0685 C   0  0  0  1  0  0  0  0  0  0  0  0
   -3.0603    0.1729    2.2103 C   0  0  0  1  0  0  0  0  0  0  0  0
   -7.0492   -3.4353   -0.6218 C   0  0  0  1  0  0  0  0  0  0  0  0
   -3.6425   -3.9297    2.9961 C   0  0  0  1  0  0  0  0  0  0  0  0
   -1.2520   -3.8487    3.1027 C   0  0  0  1  0  0  0  0  0  0  0  0
   -2.3827    2.8539    2.2438 C   0  0  0  1  0  0  0  0  0  0  0  0
   -3.1612    0.8961    3.3840 C   0  0  0  1  0  0  0  0  0  0  0  0
   -8.3682   -2.8133   -1.0017 C   0  0  0  1  0  0  0  0  0  0  0  0
   -2.8198    2.2353    3.4026 C   0  0  0  1  0  0  0  0  0  0  0  0
   -3.7081   -3.8035    4.3711 C   0  0  0  1  0  0  0  0  0  0  0  0
   -1.3175   -3.7226    4.4777 C   0  0  0  1  0  0  0  0  0  0  0  0
   -2.5456   -3.6976    5.1117 C   0  0  0  1  0  0  0  0  0  0  0  0
   -9.0692   -3.3071   -2.0853 C   0  0  0  1  0  0  0  0  0  0  0  0
    1.2582    1.8931   -0.8457 C   0  0  0  1  0  0  0  0  0  0  0  0
  -10.2820   -2.7275   -2.4265 C   0  0  0  1  0  0  0  0  0  0  0  0
   -9.9891   -1.2286   -0.5915 C   0  0  0  1  0  0  0  0  0  0  0  0
  -10.7457   -1.6685   -1.6615 C   0  0  0  1  0  0  0  0  0  0  0  0
   -2.5204    0.6867   -1.0707 H   0  0  0  1  0  0  0  0  0  0  0  0
   -3.1980   -4.6635    0.5094 H   0  0  0  1  0  0  0  0  0  0  0  0
   -1.4209   -4.5991    0.5883 H   0  0  0  1  0  0  0  0  0  0  0  0
   -4.6315   -3.9106   -0.0358 H   0  0  0  1  0  0  0  0  0  0  0  0
    0.3889   -3.1036   -1.0016 H   0  0  0  1  0  0  0  0  0  0  0  0
    0.8968   -2.1958    0.4428 H   0  0  0  1  0  0  0  0  0  0  0  0
    0.0216   -3.7354    0.6215 H   0  0  0  1  0  0  0  0  0  0  0  0
   -6.2421   -1.5992    0.1643 H   0  0  0  1  0  0  0  0  0  0  0  0
   -5.8813   -1.8843   -1.5552 H   0  0  0  1  0  0  0  0  0  0  0  0
   -1.9412    2.6098    0.1639 H   0  0  0  1  0  0  0  0  0  0  0  0
   -3.3269   -0.8736    2.1968 H   0  0  0  1  0  0  0  0  0  0  0  0
   -6.7765   -4.1886   -1.3610 H   0  0  0  1  0  0  0  0  0  0  0  0
   -7.1373   -3.9035    0.3586 H   0  0  0  1  0  0  0  0  0  0  0  0
   -4.5507   -4.0124    2.4175 H   0  0  0  1  0  0  0  0  0  0  0  0
   -0.2924   -3.8689    2.6074 H   0  0  0  1  0  0  0  0  0  0  0  0
   -3.5068    0.4145    4.2867 H   0  0  0  1  0  0  0  0  0  0  0  0
   -2.8981    2.8001    4.3198 H   0  0  0  1  0  0  0  0  0  0  0  0
   -4.6675   -3.7874    4.8668 H   0  0  0  1  0  0  0  0  0  0  0  0
   -0.4092   -3.6444    5.0567 H   0  0  0  1  0  0  0  0  0  0  0  0
   -2.5969   -3.5987    6.1859 H   0  0  0  1  0  0  0  0  0  0  0  0
   -8.6775   -4.1337   -2.6594 H   0  0  0  1  0  0  0  0  0  0  0  0
    1.1208    2.9725   -0.9097 H   0  0  0  1  0  0  0  0  0  0  0  0
    1.9510    1.6624   -0.0365 H   0  0  0  1  0  0  0  0  0  0  0  0
    1.6629    1.5219   -1.7873 H   0  0  0  1  0  0  0  0  0  0  0  0
  -10.8515   -3.0923   -3.2685 H   0  0  0  1  0  0  0  0  0  0  0  0
  -10.3437   -0.4046    0.0099 H   0  0  0  1  0  0  0  0  0  0  0  0
  -11.6859   -1.1931   -1.8986 H   0  0  0  1  0  0  0  0  0  0  0  0
  1 23  1  0  0  0  0
  2 17  1  0  0  0  0
  2 31  1  0  0  0  0
  3 17  2  0  0  0  0
  4  9  1  0  0  0  0
  4 11  1  0  0  0  0
  4 12  1  0  0  0  0
  5  8  1  0  0  0  0
  5 11  2  0  0  0  0
  6 11  1  0  0  0  0
  6 16  1  0  0  0  0
  6 38  1  0  0  0  0
  7 25  4  0  0  0  0
  7 33  4  0  0  0  0
  8 10  1  0  0  0  0
  8 13  1  0  0  0  0
  8 35  1  0  0  0  0
  9 10  2  0  0  0  0
  9 14  1  0  0  0  0
 10 17  1  0  0  0  0
 12 15  1  0  0  0  0
 12 36  1  0  0  0  0
 12 37  1  0  0  0  0
 13 18  4  0  0  0  0
 13 19  4  0  0  0  0
 14 39  1  0  0  0  0
 14 40  1  0  0  0  0
 14 41  1  0  0  0  0
 15 21  4  0  0  0  0
 15 22  4  0  0  0  0
 16 20  1  0  0  0  0
 16 42  1  0  0  0  0
 16 43  1  0  0  0  0
 18 23  4  0  0  0  0
 18 44  1  0  0  0  0
 19 24  4  0  0  0  0
 19 45  1  0  0  0  0
 20 25  1  0  0  0  0
 20 46  1  0  0  0  0
 20 47  1  0  0  0  0
 21 27  4  0  0  0  0
 21 48  1  0  0  0  0
 22 28  4  0  0  0  0
 22 49  1  0  0  0  0
 23 26  4  0  0  0  0
 24 26  4  0  0  0  0
 24 50  1  0  0  0  0
 25 30  4  0  0  0  0
 26 51  1  0  0  0  0
 27 29  4  0  0  0  0
 27 52  1  0  0  0  0
 28 29  4  0  0  0  0
 28 53  1  0  0  0  0
 29 54  1  0  0  0  0
 30 32  4  0  0  0  0
 30 55  1  0  0  0  0
 31 56  1  0  0  0  0
 31 57  1  0  0  0  0
 31 58  1  0  0  0  0
 32 34  4  0  0  0  0
 32 59  1  0  0  0  0
 33 34  4  0  0  0  0
 33 60  1  0  0  0  0
 34 61  1  0  0  0  0
M  END
> <Activity>
0.01

> <Mapped(file=2032.csv.activities,property=Cached(PUBCHEM_COMPOUND_CID))>
100

> <MatchIndices>
217 

> <PUBCHEM_ATOM_DEF_STEREO_COUNT>
1

> <PUBCHEM_ATOM_UDEF_STEREO_COUNT>
0

> <PUBCHEM_BONDANNOTATIONS>
13  18  8
13  19  8
15  21  8
15  22  8
18  23  8
19  24  8
21  27  8
22  28  8
23  26  8
24  26  8
25  30  8
27  29  8
28  29  8
30  32  8
32  34  8
33  34  8
7  25  8
7  33  8
8  13  5

> <PUBCHEM_BOND_DEF_STEREO_COUNT>
0

> <PUBCHEM_BOND_UDEF_STEREO_COUNT>
0

> <PUBCHEM_CACTVS_COMPLEXITY>
749

> <PUBCHEM_CACTVS_HBOND_ACCEPTOR>
5

> <PUBCHEM_CACTVS_HBOND_DONOR>
1

> <PUBCHEM_CACTVS_ROTATABLE_BOND>
9

> <PUBCHEM_CACTVS_SUBSKEYS>
AAADceB7sQAAAAAAAAAAAAAAAAAAAAAAAAA8YIEAAAAAAAAB0AAAHwAQAAAADCjBng4/iJPIFACoAzT3bACCgCExAiAJ2KE4ZNiIJPrA+ZGEMAhukALI6UeYyKCOAAAAAAAAAAAAAAAAAAAAAAAAAAAAAA==

> <PUBCHEM_CACTVS_TAUTO_COUNT>
4

> <PUBCHEM_CACTVS_TPSA>
66.8

> <PUBCHEM_COMPONENT_COUNT>
1

> <PUBCHEM_COMPOUND_CANONICALIZED>
1

> <PUBCHEM_COMPOUND_CID>
24789258

> <PUBCHEM_COORDINATE_TYPE>
1
5
255

> <PUBCHEM_EXACT_MASS>
458.211804

> <PUBCHEM_HEAVY_ATOM_COUNT>
34

> <PUBCHEM_ISOTOPIC_ATOM_COUNT>
0

> <PUBCHEM_IUPAC_CAS_NAME>
(4S)-4-(3-fluorophenyl)-6-methyl-1-(phenylmethyl)-2-[2-(2-pyridinyl)ethylamino]-4H-pyrimidine-5-carboxylic acid methyl ester

> <PUBCHEM_IUPAC_INCHI>
InChI=1S/C27H27FN4O2/c1-19-24(26(33)34-2)25(21-11-8-12-22(28)17-21)31-27(30-16-14-23-13-6-7-15-29-23)32(19)18-20-9-4-3-5-10-20/h3-13,15,17,25H,14,16,18H2,1-2H3,(H,30,31)/t25-/m0/s1

> <PUBCHEM_IUPAC_INCHIKEY>
OTIGNIYTQKIYDO-VWLOTQADSA-N

> <PUBCHEM_IUPAC_NAME>
methyl (4S)-1-benzyl-4-(3-fluorophenyl)-6-methyl-2-(2-pyridin-2-ylethylamino)-4H-pyrimidine-5-carboxylate

> <PUBCHEM_IUPAC_OPENEYE_NAME>
methyl (4S)-1-benzyl-4-(3-fluorophenyl)-6-methyl-2-[2-(2-pyridyl)ethylamino]-4H-pyrimidine-5-carboxylate

> <PUBCHEM_IUPAC_SYSTEMATIC_NAME>
methyl (4S)-4-(3-fluorophenyl)-6-methyl-1-(phenylmethyl)-2-(2-pyridin-2-ylethylamino)-4H-pyrimidine-5-carboxylate

> <PUBCHEM_IUPAC_TRADITIONAL_NAME>
(4S)-1-benzyl-4-(3-fluorophenyl)-6-methyl-2-[2-(2-pyridyl)ethylamino]-4H-pyrimidine-5-carboxylic acid methyl ester

> <PUBCHEM_MOLECULAR_FORMULA>
C27H27FN4O2

> <PUBCHEM_MOLECULAR_WEIGHT>
458.527283

> <PUBCHEM_MONOISOTOPIC_WEIGHT>
458.211804

> <PUBCHEM_OPENEYE_CAN_SMILES>
CC1=C(C(N=C(N1CC2=CC=CC=C2)NCCC3=CC=CC=N3)C4=CC(=CC=C4)F)C(=O)OC

> <PUBCHEM_OPENEYE_ISO_SMILES>
CC1=C([C@@H](N=C(N1CC2=CC=CC=C2)NCCC3=CC=CC=N3)C4=CC(=CC=C4)F)C(=O)OC

> <PUBCHEM_TOTAL_CHARGE>
0

> <PUBCHEM_XLOGP3_AA>
3.8

$$$$
Largest isolated from Written by BCL::WriteToMDL,6898249
JMcorina  04211410293D 1   1.00000     0.00000 
CORINA 3.49 0026  01.06.2011
 37 38  0  0  0  0  0  0  0  0999 V2000
   -0.0186    1.5178    0.0104 S   0  0  0  1  0  0  0  0  0  0  0  0
    0.0021   -0.0041    0.0020 O   0  0  0  1  0  0  0  0  0  0  0  0
   -0.9005   -0.5602   -2.5367 O   0  0  0  1  0  0  0  0  0  0  0  0
    1.3390    1.9375   -0.0003 O   0  0  0  1  0  0  0  0  0  0  0  0
   -0.9617    1.9117   -0.9768 O   0  0  0  1  0  0  0  0  0  0  0  0
   -7.0500   -3.2189    0.1303 O   0  0  0  1  0  0  0  0  0  0  0  0
   -5.7762   -2.6270    0.3098 N   0  0  0  1  0  0  0  0  0  0  0  0
   -0.6830    2.0218    1.5625 C   0  0  0  1  0  0  0  0  0  0  0  0
   -1.2197   -0.5725   -0.1737 C   0  0  0  1  0  0  0  0  0  0  0  0
    0.1583    2.2320    2.6391 C   0  0  0  1  0  0  0  0  0  0  0  0
   -2.0450    2.2127    1.7021 C   0  0  0  1  0  0  0  0  0  0  0  0
   -1.7255    2.8131    3.9978 C   0  0  0  1  0  0  0  0  0  0  0  0
   -1.6767   -0.8543   -1.4594 C   0  0  0  1  0  0  0  0  0  0  0  0
   -0.3630    2.6274    3.8568 C   0  0  0  1  0  0  0  0  0  0  0  0
   -2.5663    2.6081    2.9198 C   0  0  0  1  0  0  0  0  0  0  0  0
   -2.0069   -0.8760    0.9279 C   0  0  0  1  0  0  0  0  0  0  0  0
   -3.7140   -1.7328   -0.5313 C   0  0  0  1  0  0  0  0  0  0  0  0
   -2.9191   -1.4324   -1.6400 C   0  0  0  1  0  0  0  0  0  0  0  0
   -3.2472   -1.4527    0.7550 C   0  0  0  1  0  0  0  0  0  0  0  0
   -2.2938    3.2438    5.3254 C   0  0  0  1  0  0  0  0  0  0  0  0
   -5.0411   -2.3494   -0.7183 C   0  0  0  1  0  0  0  0  0  0  0  0
   -1.4320   -0.8763   -3.8250 C   0  0  0  1  0  0  0  0  0  0  0  0
    1.2228    2.0868    2.5289 H   0  0  0  1  0  0  0  0  0  0  0  0
   -2.7018    2.0531    0.8598 H   0  0  0  1  0  0  0  0  0  0  0  0
    0.2942    2.7908    4.6980 H   0  0  0  1  0  0  0  0  0  0  0  0
   -3.6303    2.7576    3.0288 H   0  0  0  1  0  0  0  0  0  0  0  0
   -1.6470   -0.6603    1.9230 H   0  0  0  1  0  0  0  0  0  0  0  0
   -3.2747   -1.6511   -2.6361 H   0  0  0  1  0  0  0  0  0  0  0  0
   -3.8577   -1.6883    1.6142 H   0  0  0  1  0  0  0  0  0  0  0  0
   -2.3250    4.3323    5.3714 H   0  0  0  1  0  0  0  0  0  0  0  0
   -3.3029    2.8465    5.4347 H   0  0  0  1  0  0  0  0  0  0  0  0
   -1.6646    2.8639    6.1304 H   0  0  0  1  0  0  0  0  0  0  0  0
   -5.3991   -2.5691   -1.7133 H   0  0  0  1  0  0  0  0  0  0  0  0
   -2.3635   -0.3311   -3.9775 H   0  0  0  1  0  0  0  0  0  0  0  0
   -0.7141   -0.5914   -4.5941 H   0  0  0  1  0  0  0  0  0  0  0  0
   -1.6240   -1.9476   -3.8860 H   0  0  0  1  0  0  0  0  0  0  0  0
   -7.5245   -3.3889    0.9555 H   0  0  0  1  0  0  0  0  0  0  0  0
  1  2  1  0  0  0  0
  1  4  2  0  0  0  0
  1  5  2  0  0  0  0
  1  8  1  0  0  0  0
  2  9  1  0  0  0  0
  3 13  1  0  0  0  0
  3 22  1  0  0  0  0
  6  7  1  0  0  0  0
  6 37  1  0  0  0  0
  7 21  2  0  0  0  0
  8 10  4  0  0  0  0
  8 11  4  0  0  0  0
  9 13  4  0  0  0  0
  9 16  4  0  0  0  0
 10 14  4  0  0  0  0
 10 23  1  0  0  0  0
 11 15  4  0  0  0  0
 11 24  1  0  0  0  0
 12 14  4  0  0  0  0
 12 15  4  0  0  0  0
 12 20  1  0  0  0  0
 13 18  4  0  0  0  0
 14 25  1  0  0  0  0
 15 26  1  0  0  0  0
 16 19  4  0  0  0  0
 16 27  1  0  0  0  0
 17 18  4  0  0  0  0
 17 19  4  0  0  0  0
 17 21  1  0  0  0  0
 18 28  1  0  0  0  0
 19 29  1  0  0  0  0
 20 30  1  0  0  0  0
 20 31  1  0  0  0  0
 20 32  1  0  0  0  0
 21 33  1  0  0  0  0
 22 34  1  0  0  0  0
 22 35  1  0  0  0  0
 22 36  1  0  0  0  0
M  END
> <Activity>
0.01

> <Mapped(file=2032.csv.activities,property=Cached(PUBCHEM_COMPOUND_CID))>
100

> <MatchIndices>
32 

> <PUBCHEM_ATOM_DEF_STEREO_COUNT>
0

> <PUBCHEM_ATOM_UDEF_STEREO_COUNT>
0

> <PUBCHEM_BONDANNOTATIONS>
10  14  8
11  15  8
12  14  8
12  15  8
13  18  8
16  19  8
17  18  8
17  19  8
8  10  8
8  11  8
9  13  8
9  16  8

> <PUBCHEM_BOND_DEF_STEREO_COUNT>
1

> <PUBCHEM_BOND_UDEF_STEREO_COUNT>
0

> <PUBCHEM_CACTVS_COMPLEXITY>
465

> <PUBCHEM_CACTVS_HBOND_ACCEPTOR>
6

> <PUBCHEM_CACTVS_HBOND_DONOR>
1

> <PUBCHEM_CACTVS_ROTATABLE_BOND>
5

> <PUBCHEM_CACTVS_SUBSKEYS>
AAADccByOABAAAAAAAAAAAAAAAAAAAAAAAAwYAAAAAAAAAABQAAAHgQECAAADATB2AYyB4AQBAKgAjBjAHBCCEAgIAAIiBgmiJgNJqKEMRqAMCIkwBEKqAeAwBAOMAABAAAAQABgAAIAAACAAAAAAAAAAA==

> <PUBCHEM_CACTVS_TAUTO_COUNT>
2

> <PUBCHEM_CACTVS_TPSA>
93.6

> <PUBCHEM_COMPONENT_COUNT>
1

> <PUBCHEM_COMPOUND_CANONICALIZED>
1

> <PUBCHEM_COMPOUND_CID>
6898249

> <PUBCHEM_COORDINATE_TYPE>
1
5
255

> <PUBCHEM_EXACT_MASS>
321.067094

> <PUBCHEM_HEAVY_ATOM_COUNT>
22

> <PUBCHEM_ISOTOPIC_ATOM_COUNT>
0

> <PUBCHEM_IUPAC_CAS_NAME>
4-methylbenzenesulfonic acid [4-[(E)-hydroxyiminomethyl]-2-methoxyphenyl] ester

> <PUBCHEM_IUPAC_INCHI>
InChI=1S/C15H15NO5S/c1-11-3-6-13(7-4-11)22(18,19)21-14-8-5-12(10-16-17)9-15(14)20-2/h3-10,17H,1-2H3/b16-10+

> <PUBCHEM_IUPAC_INCHIKEY>
DSURLSDBSHMHDJ-MHWRWJLKSA-N

> <PUBCHEM_IUPAC_NAME>
[4-[(E)-hydroxyiminomethyl]-2-methoxyphenyl] 4-methylbenzenesulfonate

> <PUBCHEM_IUPAC_OPENEYE_NAME>
[4-[(E)-hydroxyiminomethyl]-2-methoxy-phenyl] 4-methylbenzenesulfonate

> <PUBCHEM_IUPAC_SYSTEMATIC_NAME>
[4-[(E)-hydroxyiminomethyl]-2-methoxy-phenyl] 4-methylbenzenesulfonate

> <PUBCHEM_IUPAC_TRADITIONAL_NAME>
4-methylbenzenesulfonic acid [4-[(E)-hydroximinomethyl]-2-methoxy-phenyl] ester

> <PUBCHEM_MOLECULAR_FORMULA>
C15H15NO5S

> <PUBCHEM_MOLECULAR_WEIGHT>
321.3483

> <PUBCHEM_MONOISOTOPIC_WEIGHT>
321.067094

> <PUBCHEM_OPENEYE_CAN_SMILES>
CC1=CC=C(C=C1)S(=O)(=O)OC2=C(C=C(C=C2)C=NO)OC

> <PUBCHEM_OPENEYE_ISO_SMILES>
CC1=CC=C(C=C1)S(=O)(=O)OC2=C(C=C(C=C2)/C=N/O)OC

> <PUBCHEM_TOTAL_CHARGE>
0

> <PUBCHEM_XLOGP3_AA>
3.1

$$$$
Largest isolated from Written by BCL::WriteToMDL,1973366
JMcorina  04211410293D 1   1.00000     0.00000 
CORINA 3.49 0026  01.06.2011
 44 45  0  0  0  0  0  0  0  0999 V2000
   -5.6343   -2.0842    0.0447 Cl  0  0  0  1  0  0  0  0  0  0  0  0
   -0.0225    1.8057    0.0120 S   0  0  0  1  0  0  0  0  0  0  0  0
    7.5198    7.0009   -2.6436 O   0  0  0  1  0  0  0  0  0  0  0  0
    2.2902    3.3495   -0.0018 O   0  0  0  1  0  0  0  0  0  0  0  0
    6.1159    5.6368   -3.6893 O   0  0  0  1  0  0  0  0  0  0  0  0
    6.0899    5.5792   -1.4697 N   0  0  0  1  0  0  0  0  0  0  0  0
    3.8074    1.8446   -0.0244 N   0  0  0  1  0  0  0  0  0  0  0  0
    2.6699    1.2436   -0.0168 N   0  0  0  1  0  0  0  0  0  0  0  0
    7.9776    7.4694   -3.9395 C   0  0  0  1  0  0  0  0  0  0  0  0
    6.8014    8.0763   -4.7070 C   0  0  0  1  0  0  0  0  0  0  0  0
    9.0615    8.5314   -3.7441 C   0  0  0  1  0  0  0  0  0  0  0  0
    8.5523    6.2941   -4.7328 C   0  0  0  1  0  0  0  0  0  0  0  0
    5.0449    4.5525   -1.4648 C   0  0  0  1  0  0  0  0  0  0  0  0
    4.6950    4.1879   -0.0207 C   0  0  0  1  0  0  0  0  0  0  0  0
    6.5594    6.0574   -2.6391 C   0  0  0  1  0  0  0  0  0  0  0  0
    3.6200    3.1317   -0.0157 C   0  0  0  1  0  0  0  0  0  0  0  0
    0.0021   -0.0041    0.0020 C   0  0  0  1  0  0  0  0  0  0  0  0
   -1.4117   -0.5257    0.0127 C   0  0  0  1  0  0  0  0  0  0  0  0
    1.7084    2.1353   -0.0028 C   0  0  0  1  0  0  0  0  0  0  0  0
   -2.0714   -0.7584   -1.1797 C   0  0  0  1  0  0  0  0  0  0  0  0
   -2.0465   -0.7767    1.2149 C   0  0  0  1  0  0  0  0  0  0  0  0
   -3.3680   -1.2368   -1.1705 C   0  0  0  1  0  0  0  0  0  0  0  0
   -3.3428   -1.2560    1.2253 C   0  0  0  1  0  0  0  0  0  0  0  0
   -4.0057   -1.4832    0.0323 C   0  0  0  1  0  0  0  0  0  0  0  0
    7.7801    5.5375   -4.8720 H   0  0  0  1  0  0  0  0  0  0  0  0
    6.3920    8.9136   -4.1419 H   0  0  0  1  0  0  0  0  0  0  0  0
    7.1451    8.4280   -5.6798 H   0  0  0  1  0  0  0  0  0  0  0  0
    6.0292    7.3197   -4.8462 H   0  0  0  1  0  0  0  0  0  0  0  0
    9.8994    8.0991   -3.1973 H   0  0  0  1  0  0  0  0  0  0  0  0
    9.4051    8.8831   -4.7169 H   0  0  0  1  0  0  0  0  0  0  0  0
    8.6521    9.3687   -3.1789 H   0  0  0  1  0  0  0  0  0  0  0  0
    8.8959    6.6458   -5.7056 H   0  0  0  1  0  0  0  0  0  0  0  0
    9.3902    5.8618   -4.1860 H   0  0  0  1  0  0  0  0  0  0  0  0
    4.1571    4.9353   -1.9683 H   0  0  0  1  0  0  0  0  0  0  0  0
    5.4045    3.6656   -1.9866 H   0  0  0  1  0  0  0  0  0  0  0  0
    5.5828    3.8051    0.4827 H   0  0  0  1  0  0  0  0  0  0  0  0
    4.3354    5.0748    0.5010 H   0  0  0  1  0  0  0  0  0  0  0  0
    6.4440    5.9149   -0.6314 H   0  0  0  1  0  0  0  0  0  0  0  0
    0.5123   -0.3556   -0.8948 H   0  0  0  1  0  0  0  0  0  0  0  0
    0.5293   -0.3651    0.8851 H   0  0  0  1  0  0  0  0  0  0  0  0
   -1.5735   -0.5660   -2.1186 H   0  0  0  1  0  0  0  0  0  0  0  0
   -1.5292   -0.5986    2.1460 H   0  0  0  1  0  0  0  0  0  0  0  0
   -3.8835   -1.4179   -2.1021 H   0  0  0  1  0  0  0  0  0  0  0  0
   -3.8386   -1.4520    2.1645 H   0  0  0  1  0  0  0  0  0  0  0  0
  1 24  1  0  0  0  0
  2 17  1  0  0  0  0
  2 19  1  0  0  0  0
  3  9  1  0  0  0  0
  3 15  1  0  0  0  0
  4 16  4  0  0  0  0
  4 19  4  0  0  0  0
  5 15  2  0  0  0  0
  6 13  1  0  0  0  0
  6 15  1  0  0  0  0
  6 38  1  0  0  0  0
  7  8  4  0  0  0  0
  7 16  4  0  0  0  0
  8 19  4  0  0  0  0
  9 10  1  0  0  0  0
  9 11  1  0  0  0  0
  9 12  1  0  0  0  0
 10 26  1  0  0  0  0
 10 27  1  0  0  0  0
 10 28  1  0  0  0  0
 11 29  1  0  0  0  0
 11 30  1  0  0  0  0
 11 31  1  0  0  0  0
 12 25  1  0  0  0  0
 12 32  1  0  0  0  0
 12 33  1  0  0  0  0
 13 14  1  0  0  0  0
 13 34  1  0  0  0  0
 13 35  1  0  0  0  0
 14 16  1  0  0  0  0
 14 36  1  0  0  0  0
 14 37  1  0  0  0  0
 17 18  1  0  0  0  0
 17 39  1  0  0  0  0
 17 40  1  0  0  0  0
 18 20  4  0  0  0  0
 18 21  4  0  0  0  0
 20 22  4  0  0  0  0
 20 41  1  0  0  0  0
 21 23  4  0  0  0  0
 21 42  1  0  0  0  0
 22 24  4  0  0  0  0
 22 43  1  0  0  0  0
 23 24  4  0  0  0  0
 23 44  1  0  0  0  0
M  END
> <Activity>
0.01

> <Mapped(file=2032.csv.activities,property=Cached(PUBCHEM_COMPOUND_CID))>
100

> <MatchIndices>
12 

> <PUBCHEM_ATOM_DEF_STEREO_COUNT>
0

> <PUBCHEM_ATOM_UDEF_STEREO_COUNT>
0

> <PUBCHEM_BONDANNOTATIONS>
18  20  8
18  21  8
20  22  8
21  23  8
22  24  8
23  24  8
4  16  8
4  19  8
7  16  8
7  8  8
8  19  8

> <PUBCHEM_BOND_DEF_STEREO_COUNT>
0

> <PUBCHEM_BOND_UDEF_STEREO_COUNT>
0

> <PUBCHEM_CACTVS_COMPLEXITY>
401

> <PUBCHEM_CACTVS_HBOND_ACCEPTOR>
4

> <PUBCHEM_CACTVS_HBOND_DONOR>
1

> <PUBCHEM_CACTVS_ROTATABLE_BOND>
8

> <PUBCHEM_CACTVS_SUBSKEYS>
AAADceB7MABEAAAAAAAAAAAAAAAAAWAAAAAwAAAAAAAAAAABwAAAHgYYAAAADEbF2iSyCILABEiqAiFyGAASAABoBRAaiIE4AokIICqhUxCMIAAingAIiAcAgAAOBAAAAAAAAAAIAAAAAAAAAAAAAAAAAA==

> <PUBCHEM_CACTVS_TAUTO_COUNT>
2

> <PUBCHEM_CACTVS_TPSA>
103

> <PUBCHEM_COMPONENT_COUNT>
1

> <PUBCHEM_COMPOUND_CANONICALIZED>
1

> <PUBCHEM_COMPOUND_CID>
1973366

> <PUBCHEM_COORDINATE_TYPE>
1
5
255

> <PUBCHEM_EXACT_MASS>
369.09139

> <PUBCHEM_HEAVY_ATOM_COUNT>
24

> <PUBCHEM_ISOTOPIC_ATOM_COUNT>
0

> <PUBCHEM_IUPAC_CAS_NAME>
N-[2-[5-[(4-chlorophenyl)methylthio]-1,3,4-oxadiazol-2-yl]ethyl]carbamic acid tert-butyl ester

> <PUBCHEM_IUPAC_INCHI>
InChI=1S/C16H20ClN3O3S/c1-16(2,3)23-14(21)18-9-8-13-19-20-15(22-13)24-10-11-4-6-12(17)7-5-11/h4-7H,8-10H2,1-3H3,(H,18,21)

> <PUBCHEM_IUPAC_INCHIKEY>
PGJHCSLMLVAFSE-UHFFFAOYSA-N

> <PUBCHEM_IUPAC_NAME>
tert-butyl N-[2-[5-[(4-chlorophenyl)methylsulfanyl]-1,3,4-oxadiazol-2-yl]ethyl]carbamate

> <PUBCHEM_IUPAC_OPENEYE_NAME>
tert-butyl N-[2-[5-[(4-chlorophenyl)methylsulfanyl]-1,3,4-oxadiazol-2-yl]ethyl]carbamate

> <PUBCHEM_IUPAC_SYSTEMATIC_NAME>
tert-butyl N-[2-[5-[(4-chlorophenyl)methylsulfanyl]-1,3,4-oxadiazol-2-yl]ethyl]carbamate

> <PUBCHEM_IUPAC_TRADITIONAL_NAME>
N-[2-[5-[(4-chlorobenzyl)thio]-1,3,4-oxadiazol-2-yl]ethyl]carbamic acid tert-butyl ester

> <PUBCHEM_MOLECULAR_FORMULA>
C16H20ClN3O3S

> <PUBCHEM_MOLECULAR_WEIGHT>
369.8663

> <PUBCHEM_MONOISOTOPIC_WEIGHT>
369.09139

> <PUBCHEM_OPENEYE_CAN_SMILES>
CC(C)(C)OC(=O)NCCC1=NN=C(O1)SCC2=CC=C(C=C2)Cl

> <PUBCHEM_OPENEYE_ISO_SMILES>
CC(C)(C)OC(=O)NCCC1=NN=C(O1)SCC2=CC=C(C=C2)Cl

> <PUBCHEM_TOTAL_CHARGE>
0

> <PUBCHEM_XLOGP3_AA>
3.7

$$$$
Largest isolated from Written by BCL::WriteToMDL,2057144
JMcorina  04211410293D 1   1.00000     0.00000 
CORINA 3.49 0026  01.06.2011
 33 36  0  0  0  0  0  0  0  0999 V2000
   -0.0218    1.7577    0.0117 S   0  0  0  1  0  0  0  0  0  0  0  0
    1.4437   -1.0175   -0.0166 S   0  0  0  1  0  0  0  0  0  0  0  0
    3.0326    1.0368   -0.0219 S   0  0  0  1  0  0  0  0  0  0  0  0
   -0.8180   -2.1016   -0.0010 N   0  0  0  1  0  0  0  0  0  0  0  0
    3.5134    3.4984   -0.0131 N   0  0  0  1  0  0  0  0  0  0  0  0
    0.8920   -3.7672   -0.0254 N   0  0  0  1  0  0  0  0  0  0  0  0
    5.5553    2.2619   -0.0401 N   0  0  0  1  0  0  0  0  0  0  0  0
   -2.4776   -0.2603    0.0238 C   0  0  0  1  0  0  0  0  0  0  0  0
    1.3142    4.6419    0.0149 C   0  0  0  1  0  0  0  0  0  0  0  0
   -3.3919   -0.6322   -1.1452 C   0  0  0  1  0  0  0  0  0  0  0  0
   -3.6184   -1.2583    0.2323 C   0  0  0  1  0  0  0  0  0  0  0  0
    1.4644    5.6048    1.1944 C   0  0  0  1  0  0  0  0  0  0  0  0
    1.9900    5.9996   -0.1872 C   0  0  0  1  0  0  0  0  0  0  0  0
   -1.0720   -0.8036    0.0080 C   0  0  0  1  0  0  0  0  0  0  0  0
    2.1933    3.4180   -0.0005 C   0  0  0  1  0  0  0  0  0  0  0  0
    0.0021   -0.0041    0.0020 C   0  0  0  1  0  0  0  0  0  0  0  0
    1.6894    2.1774   -0.0024 C   0  0  0  1  0  0  0  0  0  0  0  0
    0.4294   -2.4574   -0.0144 C   0  0  0  1  0  0  0  0  0  0  0  0
    4.1713    2.3805   -0.0258 C   0  0  0  1  0  0  0  0  0  0  0  0
    0.3161    4.5094   -0.4026 H   0  0  0  1  0  0  0  0  0  0  0  0
   -2.5929    0.7334    0.4566 H   0  0  0  1  0  0  0  0  0  0  0  0
   -4.1087    0.1170   -1.4815 H   0  0  0  1  0  0  0  0  0  0  0  0
   -2.9768   -1.2697   -1.9258 H   0  0  0  1  0  0  0  0  0  0  0  0
   -3.3522   -2.3079    0.3580 H   0  0  0  1  0  0  0  0  0  0  0  0
   -4.4842   -0.9212    0.8022 H   0  0  0  1  0  0  0  0  0  0  0  0
    0.5652    6.1057    1.5529 H   0  0  0  1  0  0  0  0  0  0  0  0
    2.1991    5.3530    1.9592 H   0  0  0  1  0  0  0  0  0  0  0  0
    3.0704    6.0076   -0.3313 H   0  0  0  1  0  0  0  0  0  0  0  0
    1.4364    6.7603   -0.7377 H   0  0  0  1  0  0  0  0  0  0  0  0
    1.8456   -3.9446   -0.0348 H   0  0  0  1  0  0  0  0  0  0  0  0
    0.2615   -4.5043   -0.0236 H   0  0  0  1  0  0  0  0  0  0  0  0
    5.9667    1.3836   -0.0494 H   0  0  0  1  0  0  0  0  0  0  0  0
    6.1103    3.0575   -0.0409 H   0  0  0  1  0  0  0  0  0  0  0  0
  1 16  1  0  0  0  0
  1 17  1  0  0  0  0
  2 16  4  0  0  0  0
  2 18  4  0  0  0  0
  3 17  4  0  0  0  0
  3 19  4  0  0  0  0
  4 14  4  0  0  0  0
  4 18  4  0  0  0  0
  5 15  4  0  0  0  0
  5 19  4  0  0  0  0
  6 18  1  0  0  0  0
  6 30  1  0  0  0  0
  6 31  1  0  0  0  0
  7 19  1  0  0  0  0
  7 32  1  0  0  0  0
  7 33  1  0  0  0  0
  8 10  1  0  0  0  0
  8 11  1  0  0  0  0
  8 14  1  0  0  0  0
  8 21  1  0  0  0  0
  9 12  1  0  0  0  0
  9 13  1  0  0  0  0
  9 15  1  0  0  0  0
  9 20  1  0  0  0  0
 10 11  1  0  0  0  0
 10 22  1  0  0  0  0
 10 23  1  0  0  0  0
 11 24  1  0  0  0  0
 11 25  1  0  0  0  0
 12 13  1  0  0  0  0
 12 26  1  0  0  0  0
 12 27  1  0  0  0  0
 13 28  1  0  0  0  0
 13 29  1  0  0  0  0
 14 16  4  0  0  0  0
 15 17  4  0  0  0  0
M  END
> <Activity>
0.01

> <Mapped(file=2032.csv.activities,property=Cached(PUBCHEM_COMPOUND_CID))>
100

> <MatchIndices>
206 

> <PUBCHEM_ATOM_DEF_STEREO_COUNT>
0

> <PUBCHEM_ATOM_UDEF_STEREO_COUNT>
0

> <PUBCHEM_BONDANNOTATIONS>
14  16  8
15  17  8
2  16  8
2  18  8
3  17  8
3  19  8
4  14  8
4  18  8
5  15  8
5  19  8

> <PUBCHEM_BOND_DEF_STEREO_COUNT>
0

> <PUBCHEM_BOND_UDEF_STEREO_COUNT>
0

> <PUBCHEM_CACTVS_COMPLEXITY>
318

> <PUBCHEM_CACTVS_HBOND_ACCEPTOR>
3

> <PUBCHEM_CACTVS_HBOND_DONOR>
2

> <PUBCHEM_CACTVS_ROTATABLE_BOND>
4

> <PUBCHEM_CACTVS_SUBSKEYS>
AAADccBzgABgAAAAAAAAAAAAGDAAAWLAAAAAAAAAAAAAAAAB4AAAHAQQAAAADQiBVgABkRJIEAikAQRgZAAA8alhCDkAABQwAAiAIAIgkACEAAAAgAIgACAAAAAIAAAAAAAAAAAAAAAAAAAAAAAAAAAAAA==

> <PUBCHEM_CACTVS_TAUTO_COUNT>
3

> <PUBCHEM_CACTVS_TPSA>
160

> <PUBCHEM_COMPONENT_COUNT>
1

> <PUBCHEM_COMPOUND_CANONICALIZED>
1

> <PUBCHEM_COMPOUND_CID>
2057144

> <PUBCHEM_COORDINATE_TYPE>
1
5
255

> <PUBCHEM_EXACT_MASS>
310.038059

> <PUBCHEM_HEAVY_ATOM_COUNT>
19

> <PUBCHEM_ISOTOPIC_ATOM_COUNT>
0

> <PUBCHEM_IUPAC_CAS_NAME>
5-[(2-amino-4-cyclopropyl-5-thiazolyl)thio]-4-cyclopropyl-2-thiazolamine

> <PUBCHEM_IUPAC_INCHI>
InChI=1S/C12H14N4S3/c13-11-15-7(5-1-2-5)9(18-11)17-10-8(6-3-4-6)16-12(14)19-10/h5-6H,1-4H2,(H2,13,15)(H2,14,16)

> <PUBCHEM_IUPAC_INCHIKEY>
SEUQSBBGEOQXPO-UHFFFAOYSA-N

> <PUBCHEM_IUPAC_NAME>
5-[(2-amino-4-cyclopropyl-1,3-thiazol-5-yl)sulfanyl]-4-cyclopropyl-1,3-thiazol-2-amine

> <PUBCHEM_IUPAC_OPENEYE_NAME>
5-(2-amino-4-cyclopropyl-thiazol-5-yl)sulfanyl-4-cyclopropyl-thiazol-2-amine

> <PUBCHEM_IUPAC_SYSTEMATIC_NAME>
5-[(2-azanyl-4-cyclopropyl-1,3-thiazol-5-yl)sulfanyl]-4-cyclopropyl-1,3-thiazol-2-amine

> <PUBCHEM_IUPAC_TRADITIONAL_NAME>
[5-[(2-amino-4-cyclopropyl-thiazol-5-yl)thio]-4-cyclopropyl-thiazol-2-yl]amine

> <PUBCHEM_MOLECULAR_FORMULA>
C12H14N4S3

> <PUBCHEM_MOLECULAR_WEIGHT>
310.46136

> <PUBCHEM_MONOISOTOPIC_WEIGHT>
310.038059

> <PUBCHEM_OPENEYE_CAN_SMILES>
C1CC1C2=C(SC(=N2)N)SC3=C(N=C(S3)N)C4CC4

> <PUBCHEM_OPENEYE_ISO_SMILES>
C1CC1C2=C(SC(=N2)N)SC3=C(N=C(S3)N)C4CC4

> <PUBCHEM_TOTAL_CHARGE>
0

> <PUBCHEM_XLOGP3_AA>
3.2

$$$$
Largest isolated from Written by BCL::WriteToMDL,657581
JMcorina  04211410293D 1   1.00000     0.00000 
CORINA 3.49 0026  01.06.2011
 40 42  0  0  0  0  0  0  0  0999 V2000
   -0.0162    1.3450    0.0094 O   0  0  0  1  0  0  0  0  0  0  0  0
    0.9881   -4.0270   -0.0302 O   0  0  0  1  0  0  0  0  0  0  0  0
    3.6067   -2.3316    1.3405 N   0  0  0  1  0  0  0  0  0  0  0  0
    1.3488   -0.4023   -0.0130 C   0  0  0  1  0  0  0  0  0  0  0  0
    1.6797   -1.7568   -0.0238 C   0  0  0  1  0  0  0  0  0  0  0  0
    3.1246   -2.1846   -0.0394 C   0  0  0  1  0  0  0  0  0  0  0  0
    0.0021   -0.0041    0.0020 C   0  0  0  1  0  0  0  0  0  0  0  0
    1.2331    1.8413    0.0002 C   0  0  0  1  0  0  0  0  0  0  0  0
    2.1265    0.8427   -0.0137 C   0  0  0  1  0  0  0  0  0  0  0  0
    1.5788    3.3081    0.0043 C   0  0  0  1  0  0  0  0  0  0  0  0
    0.6739   -2.7041   -0.0192 C   0  0  0  1  0  0  0  0  0  0  0  0
   -0.9953   -0.9711    0.0059 C   0  0  0  1  0  0  0  0  0  0  0  0
   -0.6602   -2.3074   -0.0044 C   0  0  0  1  0  0  0  0  0  0  0  0
    1.6800    3.8043   -1.4151 C   0  0  0  1  0  0  0  0  0  0  0  0
    2.9220   -3.4380    2.0223 C   0  0  0  1  0  0  0  0  0  0  0  0
    5.0639   -2.5148    1.3723 C   0  0  0  1  0  0  0  0  0  0  0  0
    0.5613    4.3065   -2.0532 C   0  0  0  1  0  0  0  0  0  0  0  0
    2.8929    3.7626   -2.0770 C   0  0  0  1  0  0  0  0  0  0  0  0
    0.6542    4.7616   -3.3551 C   0  0  0  1  0  0  0  0  0  0  0  0
    2.9858    4.2178   -3.3789 C   0  0  0  1  0  0  0  0  0  0  0  0
    1.8659    4.7150   -4.0188 C   0  0  0  1  0  0  0  0  0  0  0  0
    3.7210   -1.4314   -0.5543 H   0  0  0  1  0  0  0  0  0  0  0  0
    3.2156   -3.1381   -0.5596 H   0  0  0  1  0  0  0  0  0  0  0  0
    3.2025    0.9352   -0.0232 H   0  0  0  1  0  0  0  0  0  0  0  0
    0.8010    3.8632    0.5287 H   0  0  0  1  0  0  0  0  0  0  0  0
    2.5334    3.4550    0.5095 H   0  0  0  1  0  0  0  0  0  0  0  0
   -2.0339   -0.6752    0.0174 H   0  0  0  1  0  0  0  0  0  0  0  0
   -1.4402   -3.0544   -0.0013 H   0  0  0  1  0  0  0  0  0  0  0  0
    3.1102   -4.3677    1.4854 H   0  0  0  1  0  0  0  0  0  0  0  0
    5.5489   -1.6481    0.9231 H   0  0  0  1  0  0  0  0  0  0  0  0
    5.3942   -2.6210    2.4056 H   0  0  0  1  0  0  0  0  0  0  0  0
    5.3297   -3.4111    0.8119 H   0  0  0  1  0  0  0  0  0  0  0  0
    3.2977   -3.5247    3.0418 H   0  0  0  1  0  0  0  0  0  0  0  0
    1.8499   -3.2426    2.0456 H   0  0  0  1  0  0  0  0  0  0  0  0
   -0.3854    4.3429   -1.5346 H   0  0  0  1  0  0  0  0  0  0  0  0
    3.7680    3.3747   -1.5768 H   0  0  0  1  0  0  0  0  0  0  0  0
    1.0879   -4.4149    0.8500 H   0  0  0  1  0  0  0  0  0  0  0  0
   -0.2200    5.1533   -3.8539 H   0  0  0  1  0  0  0  0  0  0  0  0
    3.9334    4.1855   -3.8959 H   0  0  0  1  0  0  0  0  0  0  0  0
    1.9384    5.0703   -5.0361 H   0  0  0  1  0  0  0  0  0  0  0  0
  1  7  4  0  0  0  0
  1  8  4  0  0  0  0
  2 11  1  0  0  0  0
  2 37  1  0  0  0  0
  3  6  1  0  0  0  0
  3 15  1  0  0  0  0
  3 16  1  0  0  0  0
  4  5  4  0  0  0  0
  4  7  4  0  0  0  0
  4  9  4  0  0  0  0
  5  6  1  0  0  0  0
  5 11  4  0  0  0  0
  6 22  1  0  0  0  0
  6 23  1  0  0  0  0
  7 12  4  0  0  0  0
  8  9  4  0  0  0  0
  8 10  1  0  0  0  0
  9 24  1  0  0  0  0
 10 14  1  0  0  0  0
 10 25  1  0  0  0  0
 10 26  1  0  0  0  0
 11 13  4  0  0  0  0
 12 13  4  0  0  0  0
 12 27  1  0  0  0  0
 13 28  1  0  0  0  0
 14 17  4  0  0  0  0
 14 18  4  0  0  0  0
 15 29  1  0  0  0  0
 15 33  1  0  0  0  0
 15 34  1  0  0  0  0
 16 30  1  0  0  0  0
 16 31  1  0  0  0  0
 16 32  1  0  0  0  0
 17 19  4  0  0  0  0
 17 35  1  0  0  0  0
 18 20  4  0  0  0  0
 18 36  1  0  0  0  0
 19 21  4  0  0  0  0
 19 38  1  0  0  0  0
 20 21  4  0  0  0  0
 20 39  1  0  0  0  0
 21 40  1  0  0  0  0
M  END
> <Activity>
0.01

> <Mapped(file=2032.csv.activities,property=Cached(PUBCHEM_COMPOUND_CID))>
100

> <MatchIndices>
29 

> <PUBCHEM_ATOM_DEF_STEREO_COUNT>
0

> <PUBCHEM_ATOM_UDEF_STEREO_COUNT>
0

> <PUBCHEM_BONDANNOTATIONS>
1  7  8
1  8  8
11  13  8
12  13  8
14  17  8
14  18  8
17  19  8
18  20  8
19  21  8
20  21  8
4  5  8
4  7  8
4  9  8
5  11  8
7  12  8
8  9  8

> <PUBCHEM_BOND_DEF_STEREO_COUNT>
0

> <PUBCHEM_BOND_UDEF_STEREO_COUNT>
0

> <PUBCHEM_CACTVS_COMPLEXITY>
327

> <PUBCHEM_CACTVS_HBOND_ACCEPTOR>
3

> <PUBCHEM_CACTVS_HBOND_DONOR>
1

> <PUBCHEM_CACTVS_ROTATABLE_BOND>
4

> <PUBCHEM_CACTVS_SUBSKEYS>
AAADceB6MAAAAAAAAAAAAAAAAAAAASAAAAAwYAAAAAAAAEgB9AAAHgAACAAADATBmAQyBsMABkCIAqBSAACCCAAkIAAIiAEODMgMJjKGtRuGeSjmwBEIuYf+/f7OgQABAAAYAAACAAIAADAAAAAAAAAAAA==

> <PUBCHEM_CACTVS_TAUTO_COUNT>
9

> <PUBCHEM_CACTVS_TPSA>
36.6

> <PUBCHEM_COMPONENT_COUNT>
1

> <PUBCHEM_COMPOUND_CANONICALIZED>
1

> <PUBCHEM_COMPOUND_CID>
657581

> <PUBCHEM_COORDINATE_TYPE>
1
5
255

> <PUBCHEM_EXACT_MASS>
281.141579

> <PUBCHEM_HEAVY_ATOM_COUNT>
21

> <PUBCHEM_ISOTOPIC_ATOM_COUNT>
0

> <PUBCHEM_IUPAC_CAS_NAME>
4-[(dimethylamino)methyl]-2-(phenylmethyl)-5-benzofuranol

> <PUBCHEM_IUPAC_INCHI>
InChI=1S/C18H19NO2/c1-19(2)12-16-15-11-14(10-13-6-4-3-5-7-13)21-18(15)9-8-17(16)20/h3-9,11,20H,10,12H2,1-2H3

> <PUBCHEM_IUPAC_INCHIKEY>
IIHQWGVGNVVDIB-UHFFFAOYSA-N

> <PUBCHEM_IUPAC_NAME>
2-benzyl-4-[(dimethylamino)methyl]-1-benzofuran-5-ol

> <PUBCHEM_IUPAC_OPENEYE_NAME>
2-benzyl-4-[(dimethylamino)methyl]benzofuran-5-ol

> <PUBCHEM_IUPAC_SYSTEMATIC_NAME>
4-[(dimethylamino)methyl]-2-(phenylmethyl)-1-benzofuran-5-ol

> <PUBCHEM_IUPAC_TRADITIONAL_NAME>
2-benzyl-4-[(dimethylamino)methyl]benzofuran-5-ol

> <PUBCHEM_MOLECULAR_FORMULA>
C18H19NO2

> <PUBCHEM_MOLECULAR_WEIGHT>
281.34896

> <PUBCHEM_MONOISOTOPIC_WEIGHT>
281.141579

> <PUBCHEM_OPENEYE_CAN_SMILES>
CN(C)CC1=C(C=CC2=C1C=C(O2)CC3=CC=CC=C3)O

> <PUBCHEM_OPENEYE_ISO_SMILES>
CN(C)CC1=C(C=CC2=C1C=C(O2)CC3=CC=CC=C3)O

> <PUBCHEM_TOTAL_CHARGE>
0

> <PUBCHEM_XLOGP3_AA>
3.8

$$$$
Largest isolated from Written by BCL::WriteToMDL,2738173
JMcorina  04211410293D 1   1.00000     0.00000 
CORINA 3.49 0026  01.06.2011
 39 41  0  0  0  0  0  0  0  0999 V2000
   -3.7068    0.3001    3.8265 Cl  0  0  0  1  0  0  0  0  0  0  0  0
   -0.0172    1.4168    0.0098 S   0  0  0  1  0  0  0  0  0  0  0  0
   -1.7597    3.7786   -5.1232 O   0  0  0  1  0  0  0  0  0  0  0  0
    0.0021   -0.0041    0.0020 O   0  0  0  1  0  0  0  0  0  0  0  0
    1.1617    2.2101    0.0028 O   0  0  0  1  0  0  0  0  0  0  0  0
   -0.9002    1.8797   -1.3124 N   0  0  0  1  0  0  0  0  0  0  0  0
   -2.9043    3.6597   -4.7520 N   0  0  0  1  0  0  0  0  0  0  0  0
   -1.6270    3.4775   -2.9882 C   0  0  0  1  0  0  0  0  0  0  0  0
   -1.1366    3.3017   -1.5741 C   0  0  0  1  0  0  0  0  0  0  0  0
   -2.9701    3.4688   -3.4577 C   0  0  0  1  0  0  0  0  0  0  0  0
   -0.8927    3.6809   -4.1054 C   0  0  0  1  0  0  0  0  0  0  0  0
   -0.9297    1.8941    1.4396 C   0  0  0  1  0  0  0  0  0  0  0  0
   -4.1980    3.2818   -2.6450 C   0  0  0  1  0  0  0  0  0  0  0  0
    0.6088    3.7782   -4.1900 C   0  0  0  1  0  0  0  0  0  0  0  0
   -1.8427    1.0211    1.9997 C   0  0  0  1  0  0  0  0  0  0  0  0
   -0.7279    3.1400    2.0041 C   0  0  0  1  0  0  0  0  0  0  0  0
   -5.3670    3.9628   -2.9776 C   0  0  0  1  0  0  0  0  0  0  0  0
   -4.1872    2.4202   -1.5501 C   0  0  0  1  0  0  0  0  0  0  0  0
   -2.5592    1.3961    3.1226 C   0  0  0  1  0  0  0  0  0  0  0  0
   -1.4430    3.5150    3.1260 C   0  0  0  1  0  0  0  0  0  0  0  0
   -6.5059    3.7852   -2.2184 C   0  0  0  1  0  0  0  0  0  0  0  0
   -5.3317    2.2500   -0.7978 C   0  0  0  1  0  0  0  0  0  0  0  0
   -2.3610    2.6449    3.6836 C   0  0  0  1  0  0  0  0  0  0  0  0
   -6.4879    2.9333   -1.1288 C   0  0  0  1  0  0  0  0  0  0  0  0
   -1.8873    3.6790   -0.8796 H   0  0  0  1  0  0  0  0  0  0  0  0
   -0.2072    3.8551   -1.4403 H   0  0  0  1  0  0  0  0  0  0  0  0
   -1.2609    1.2094   -1.9136 H   0  0  0  1  0  0  0  0  0  0  0  0
    0.9043    3.9450   -5.2258 H   0  0  0  1  0  0  0  0  0  0  0  0
    0.9542    4.6095   -3.5753 H   0  0  0  1  0  0  0  0  0  0  0  0
    1.0539    2.8507   -3.8300 H   0  0  0  1  0  0  0  0  0  0  0  0
   -1.9973    0.0463    1.5611 H   0  0  0  1  0  0  0  0  0  0  0  0
   -0.0110    3.8203    1.5686 H   0  0  0  1  0  0  0  0  0  0  0  0
   -5.3819    4.6287   -3.8277 H   0  0  0  1  0  0  0  0  0  0  0  0
   -3.2849    1.8862   -1.2909 H   0  0  0  1  0  0  0  0  0  0  0  0
   -1.2847    4.4882    3.5668 H   0  0  0  1  0  0  0  0  0  0  0  0
   -7.4127    4.3126   -2.4754 H   0  0  0  1  0  0  0  0  0  0  0  0
   -5.3244    1.5823    0.0511 H   0  0  0  1  0  0  0  0  0  0  0  0
   -2.9202    2.9382    4.5598 H   0  0  0  1  0  0  0  0  0  0  0  0
   -7.3811    2.7977   -0.5370 H   0  0  0  1  0  0  0  0  0  0  0  0
  1 19  1  0  0  0  0
  2  4  2  0  0  0  0
  2  5  2  0  0  0  0
  2  6  1  0  0  0  0
  2 12  1  0  0  0  0
  3  7  4  0  0  0  0
  3 11  4  0  0  0  0
  6  9  1  0  0  0  0
  6 27  1  0  0  0  0
  7 10  4  0  0  0  0
  8  9  1  0  0  0  0
  8 10  4  0  0  0  0
  8 11  4  0  0  0  0
  9 25  1  0  0  0  0
  9 26  1  0  0  0  0
 10 13  1  0  0  0  0
 11 14  1  0  0  0  0
 12 15  4  0  0  0  0
 12 16  4  0  0  0  0
 13 17  4  0  0  0  0
 13 18  4  0  0  0  0
 14 28  1  0  0  0  0
 14 29  1  0  0  0  0
 14 30  1  0  0  0  0
 15 19  4  0  0  0  0
 15 31  1  0  0  0  0
 16 20  4  0  0  0  0
 16 32  1  0  0  0  0
 17 21  4  0  0  0  0
 17 33  1  0  0  0  0
 18 22  4  0  0  0  0
 18 34  1  0  0  0  0
 19 23  4  0  0  0  0
 20 23  4  0  0  0  0
 20 35  1  0  0  0  0
 21 24  4  0  0  0  0
 21 36  1  0  0  0  0
 22 24  4  0  0  0  0
 22 37  1  0  0  0  0
 23 38  1  0  0  0  0
 24 39  1  0  0  0  0
M  END
> <Activity>
0.01

> <Mapped(file=2032.csv.activities,property=Cached(PUBCHEM_COMPOUND_CID))>
100

> <MatchIndices>
175 

> <PUBCHEM_ATOM_DEF_STEREO_COUNT>
0

> <PUBCHEM_ATOM_UDEF_STEREO_COUNT>
0

> <PUBCHEM_BONDANNOTATIONS>
12  15  8
12  16  8
13  17  8
13  18  8
15  19  8
16  20  8
17  21  8
18  22  8
19  23  8
20  23  8
21  24  8
22  24  8
3  11  8
3  7  8
7  10  8
8  10  8
8  11  8

> <PUBCHEM_BOND_DEF_STEREO_COUNT>
0

> <PUBCHEM_BOND_UDEF_STEREO_COUNT>
0

> <PUBCHEM_CACTVS_COMPLEXITY>
505

> <PUBCHEM_CACTVS_HBOND_ACCEPTOR>
5

> <PUBCHEM_CACTVS_HBOND_DONOR>
1

> <PUBCHEM_CACTVS_ROTATABLE_BOND>
5

> <PUBCHEM_CACTVS_SUBSKEYS>
AAADccB7MABEAAAAAAAAAAAAAAAAAWAAAAAwYAAAAAAAAAAB0AAAHgYUQAAADA7B3iQyhZBQAAKpA6RyQnDCABAkJQAomLkkTtoIJrqB05OAMYBmgBgIyUeYyOCOAAAAABAAAAAAAAAAIAAAAAAAAAAAAA==

> <PUBCHEM_CACTVS_TAUTO_COUNT>
1

> <PUBCHEM_CACTVS_TPSA>
80.6

> <PUBCHEM_COMPONENT_COUNT>
1

> <PUBCHEM_COMPOUND_CANONICALIZED>
1

> <PUBCHEM_COMPOUND_CID>
2738173

> <PUBCHEM_COORDINATE_TYPE>
1
5
255

> <PUBCHEM_EXACT_MASS>
362.049191

> <PUBCHEM_HEAVY_ATOM_COUNT>
24

> <PUBCHEM_ISOTOPIC_ATOM_COUNT>
0

> <PUBCHEM_IUPAC_CAS_NAME>
3-chloro-N-[(5-methyl-3-phenyl-4-isoxazolyl)methyl]benzenesulfonamide

> <PUBCHEM_IUPAC_INCHI>
InChI=1S/C17H15ClN2O3S/c1-12-16(17(20-23-12)13-6-3-2-4-7-13)11-19-24(21,22)15-9-5-8-14(18)10-15/h2-10,19H,11H2,1H3

> <PUBCHEM_IUPAC_INCHIKEY>
ASTDUHHRCLLLMU-UHFFFAOYSA-N

> <PUBCHEM_IUPAC_NAME>
3-chloro-N-[(5-methyl-3-phenyl-1,2-oxazol-4-yl)methyl]benzenesulfonamide

> <PUBCHEM_IUPAC_OPENEYE_NAME>
3-chloro-N-[(5-methyl-3-phenyl-isoxazol-4-yl)methyl]benzenesulfonamide

> <PUBCHEM_IUPAC_SYSTEMATIC_NAME>
3-chloranyl-N-[(5-methyl-3-phenyl-1,2-oxazol-4-yl)methyl]benzenesulfonamide

> <PUBCHEM_IUPAC_TRADITIONAL_NAME>
3-chloro-N-[(5-methyl-3-phenyl-isoxazol-4-yl)methyl]benzenesulfonamide

> <PUBCHEM_MOLECULAR_FORMULA>
C17H15ClN2O3S

> <PUBCHEM_MOLECULAR_WEIGHT>
362.8306

> <PUBCHEM_MONOISOTOPIC_WEIGHT>
362.049191

> <PUBCHEM_OPENEYE_CAN_SMILES>
CC1=C(C(=NO1)C2=CC=CC=C2)CNS(=O)(=O)C3=CC(=CC=C3)Cl

> <PUBCHEM_OPENEYE_ISO_SMILES>
CC1=C(C(=NO1)C2=CC=CC=C2)CNS(=O)(=O)C3=CC(=CC=C3)Cl

> <PUBCHEM_TOTAL_CHARGE>
0

> <PUBCHEM_XLOGP3_AA>
3.5

$$$$
Largest isolated from Written by BCL::WriteToMDL,2997969
JMcorina  04211410293D 1   1.00000     0.00000 
CORINA 3.49 0026  01.06.2011
 46 48  0  0  0  0  0  0  0  0999 V2000
   -0.0218    1.7577    0.0117 S   0  0  0  1  0  0  0  0  0  0  0  0
    5.8139   11.3689    0.0076 F   0  0  0  1  0  0  0  0  0  0  0  0
    1.0374    4.3441    0.0155 O   0  0  0  1  0  0  0  0  0  0  0  0
   -1.1054   -0.8044    0.0083 N   0  0  0  1  0  0  0  0  0  0  0  0
    1.0845   -0.7424   -0.0223 N   0  0  0  1  0  0  0  0  0  0  0  0
    3.2396    4.0757   -0.0070 N   0  0  0  1  0  0  0  0  0  0  0  0
   -5.4491    0.5875    1.5180 N   0  0  0  1  0  0  0  0  0  0  0  0
   -0.6631   -2.1173   -0.0035 C   0  0  0  1  0  0  0  0  0  0  0  0
   -2.5004   -0.3575    0.0298 C   0  0  0  1  0  0  0  0  0  0  0  0
    0.7404   -2.0569   -0.0230 C   0  0  0  1  0  0  0  0  0  0  0  0
    0.0021   -0.0041    0.0020 C   0  0  0  1  0  0  0  0  0  0  0  0
   -1.3030   -3.3469   -0.0000 C   0  0  0  1  0  0  0  0  0  0  0  0
    4.9639    5.8100   -0.0141 C   0  0  0  1  0  0  0  0  0  0  0  0
   -2.9657   -0.2080    1.4797 C   0  0  0  1  0  0  0  0  0  0  0  0
    3.4610    5.5239   -0.0013 C   0  0  0  1  0  0  0  0  0  0  0  0
    1.4793   -3.2421   -0.0429 C   0  0  0  1  0  0  0  0  0  0  0  0
    1.7562    2.0963   -0.0035 C   0  0  0  1  0  0  0  0  0  0  0  0
    5.1917    7.2997   -0.0083 C   0  0  0  1  0  0  0  0  0  0  0  0
   -0.5585   -4.5089   -0.0158 C   0  0  0  1  0  0  0  0  0  0  0  0
    0.8268   -4.4551   -0.0369 C   0  0  0  1  0  0  0  0  0  0  0  0
    1.9840    3.5860    0.0024 C   0  0  0  1  0  0  0  0  0  0  0  0
    5.3076    7.9760    1.1918 C   0  0  0  1  0  0  0  0  0  0  0  0
    5.2904    7.9880   -1.2032 C   0  0  0  1  0  0  0  0  0  0  0  0
    5.5165    9.3421    1.1984 C   0  0  0  1  0  0  0  0  0  0  0  0
    5.4997    9.3540   -1.1991 C   0  0  0  1  0  0  0  0  0  0  0  0
   -4.3674    0.2410    1.5013 C   0  0  0  1  0  0  0  0  0  0  0  0
    5.6102   10.0333    0.0024 C   0  0  0  1  0  0  0  0  0  0  0  0
   -2.5821    0.6030   -0.4789 H   0  0  0  1  0  0  0  0  0  0  0  0
   -3.1251   -1.0921   -0.4783 H   0  0  0  1  0  0  0  0  0  0  0  0
   -2.3818   -3.3955    0.0154 H   0  0  0  1  0  0  0  0  0  0  0  0
    5.4254    5.3685    0.8691 H   0  0  0  1  0  0  0  0  0  0  0  0
    5.4084    5.3780   -0.9107 H   0  0  0  1  0  0  0  0  0  0  0  0
   -2.8840   -1.1686    1.9884 H   0  0  0  1  0  0  0  0  0  0  0  0
   -2.3410    0.5265    1.9878 H   0  0  0  1  0  0  0  0  0  0  0  0
    2.9995    5.9654   -0.8846 H   0  0  0  1  0  0  0  0  0  0  0  0
    3.0165    5.9559    0.8953 H   0  0  0  1  0  0  0  0  0  0  0  0
    2.5585   -3.2075   -0.0634 H   0  0  0  1  0  0  0  0  0  0  0  0
    2.2177    1.6547    0.8798 H   0  0  0  1  0  0  0  0  0  0  0  0
    2.2007    1.6643   -0.9001 H   0  0  0  1  0  0  0  0  0  0  0  0
   -1.0582   -5.4663   -0.0127 H   0  0  0  1  0  0  0  0  0  0  0  0
    1.3986   -5.3712   -0.0523 H   0  0  0  1  0  0  0  0  0  0  0  0
    3.9966    3.4694   -0.0175 H   0  0  0  1  0  0  0  0  0  0  0  0
    5.2344    7.4366    2.1246 H   0  0  0  1  0  0  0  0  0  0  0  0
    5.2042    7.4579   -2.1402 H   0  0  0  1  0  0  0  0  0  0  0  0
    5.6062    9.8704    2.1361 H   0  0  0  1  0  0  0  0  0  0  0  0
    5.5764    9.8916   -2.1326 H   0  0  0  1  0  0  0  0  0  0  0  0
  1 11  1  0  0  0  0
  1 17  1  0  0  0  0
  2 27  1  0  0  0  0
  3 21  2  0  0  0  0
  4  8  4  0  0  0  0
  4  9  1  0  0  0  0
  4 11  4  0  0  0  0
  5 10  4  0  0  0  0
  5 11  4  0  0  0  0
  6 15  1  0  0  0  0
  6 21  1  0  0  0  0
  6 42  1  0  0  0  0
  7 26  3  0  0  0  0
  8 10  4  0  0  0  0
  8 12  4  0  0  0  0
  9 14  1  0  0  0  0
  9 28  1  0  0  0  0
  9 29  1  0  0  0  0
 10 16  4  0  0  0  0
 12 19  4  0  0  0  0
 12 30  1  0  0  0  0
 13 15  1  0  0  0  0
 13 18  1  0  0  0  0
 13 31  1  0  0  0  0
 13 32  1  0  0  0  0
 14 26  1  0  0  0  0
 14 33  1  0  0  0  0
 14 34  1  0  0  0  0
 15 35  1  0  0  0  0
 15 36  1  0  0  0  0
 16 20  4  0  0  0  0
 16 37  1  0  0  0  0
 17 21  1  0  0  0  0
 17 38  1  0  0  0  0
 17 39  1  0  0  0  0
 18 22  4  0  0  0  0
 18 23  4  0  0  0  0
 19 20  4  0  0  0  0
 19 40  1  0  0  0  0
 20 41  1  0  0  0  0
 22 24  4  0  0  0  0
 22 43  1  0  0  0  0
 23 25  4  0  0  0  0
 23 44  1  0  0  0  0
 24 27  4  0  0  0  0
 24 45  1  0  0  0  0
 25 27  4  0  0  0  0
 25 46  1  0  0  0  0
M  END
> <Activity>
0.01

> <Mapped(file=2032.csv.activities,property=Cached(PUBCHEM_COMPOUND_CID))>
100

> <MatchIndices>
196 

> <PUBCHEM_ATOM_DEF_STEREO_COUNT>
0

> <PUBCHEM_ATOM_UDEF_STEREO_COUNT>
0

> <PUBCHEM_BONDANNOTATIONS>
10  16  8
12  19  8
16  20  8
18  22  8
18  23  8
19  20  8
22  24  8
23  25  8
24  27  8
25  27  8
4  11  8
4  8  8
5  10  8
5  11  8
8  10  8
8  12  8

> <PUBCHEM_BOND_DEF_STEREO_COUNT>
0

> <PUBCHEM_BOND_UDEF_STEREO_COUNT>
0

> <PUBCHEM_CACTVS_COMPLEXITY>
531

> <PUBCHEM_CACTVS_HBOND_ACCEPTOR>
4

> <PUBCHEM_CACTVS_HBOND_DONOR>
1

> <PUBCHEM_CACTVS_ROTATABLE_BOND>
8

> <PUBCHEM_CACTVS_SUBSKEYS>
AAADceB7oQBAAAAAAAAAAAAAAAAAAWAAAAAwYAAAAAAAAFgB9AAAHwQQAAAADAjF3gyx0LfMEAi4ByVydACC0C1hErAJ2KA4dJiI6KLAmZGUIAholgLIyCcQgIAOAAAAAAAAACAAAAAAAAAAQAAAAAAAAA==

> <PUBCHEM_CACTVS_TAUTO_COUNT>
2

> <PUBCHEM_CACTVS_TPSA>
96

> <PUBCHEM_COMPONENT_COUNT>
1

> <PUBCHEM_COMPOUND_CANONICALIZED>
1

> <PUBCHEM_COMPOUND_CID>
2997969

> <PUBCHEM_COORDINATE_TYPE>
1
5
255

> <PUBCHEM_EXACT_MASS>
382.12636

> <PUBCHEM_HEAVY_ATOM_COUNT>
27

> <PUBCHEM_ISOTOPIC_ATOM_COUNT>
0

> <PUBCHEM_IUPAC_CAS_NAME>
2-[[1-(2-cyanoethyl)-2-benzimidazolyl]thio]-N-[2-(4-fluorophenyl)ethyl]acetamide

> <PUBCHEM_IUPAC_INCHI>
InChI=1S/C20H19FN4OS/c21-16-8-6-15(7-9-16)10-12-23-19(26)14-27-20-24-17-4-1-2-5-18(17)25(20)13-3-11-22/h1-2,4-9H,3,10,12-14H2,(H,23,26)

> <PUBCHEM_IUPAC_INCHIKEY>
BIUOXECWEBTUEK-UHFFFAOYSA-N

> <PUBCHEM_IUPAC_NAME>
2-[1-(2-cyanoethyl)benzimidazol-2-yl]sulfanyl-N-[2-(4-fluorophenyl)ethyl]acetamide

> <PUBCHEM_IUPAC_OPENEYE_NAME>
2-[1-(2-cyanoethyl)benzimidazol-2-yl]sulfanyl-N-[2-(4-fluorophenyl)ethyl]acetamide

> <PUBCHEM_IUPAC_SYSTEMATIC_NAME>
2-[1-(2-cyanoethyl)benzimidazol-2-yl]sulfanyl-N-[2-(4-fluorophenyl)ethyl]ethanamide

> <PUBCHEM_IUPAC_TRADITIONAL_NAME>
2-[[1-(2-cyanoethyl)benzimidazol-2-yl]thio]-N-[2-(4-fluorophenyl)ethyl]acetamide

> <PUBCHEM_MOLECULAR_FORMULA>
C20H19FN4OS

> <PUBCHEM_MOLECULAR_WEIGHT>
382.454463

> <PUBCHEM_MONOISOTOPIC_WEIGHT>
382.12636

> <PUBCHEM_OPENEYE_CAN_SMILES>
C1=CC=C2C(=C1)N=C(N2CCC#N)SCC(=O)NCCC3=CC=C(C=C3)F

> <PUBCHEM_OPENEYE_ISO_SMILES>
C1=CC=C2C(=C1)N=C(N2CCC#N)SCC(=O)NCCC3=CC=C(C=C3)F

> <PUBCHEM_TOTAL_CHARGE>
0

> <PUBCHEM_XLOGP3_AA>
3.3

$$$$
Largest isolated from Written by BCL::WriteToMDL,5390025
JMcorina  04211410293D 1   1.00000     0.00000 
CORINA 3.49 0026  01.06.2011
 39 41  0  0  0  0  0  0  0  0999 V2000
   -0.0330    1.0585   -0.9193 O   0  0  0  1  0  0  0  0  0  0  0  0
   -1.7926    1.7982   -0.1608 O   0  0  0  1  0  0  0  0  0  0  0  0
    1.6122    1.7300   -6.1113 O   0  0  0  1  0  0  0  0  0  0  0  0
   -6.4042    0.7541    0.1259 O   0  0  0  1  0  0  0  0  0  0  0  0
   -0.6275   -2.1392    0.5202 N   0  0  0  1  0  0  0  0  0  0  0  0
    0.7601   -2.1506    0.3240 N   0  0  0  1  0  0  0  0  0  0  0  0
   -1.0959   -0.9292    0.0763 C   0  0  0  1  0  0  0  0  0  0  0  0
    0.0072   -0.1971   -0.3932 C   0  0  0  1  0  0  0  0  0  0  0  0
    1.1216   -0.9588   -0.2324 C   0  0  0  1  0  0  0  0  0  0  0  0
   -2.4877   -0.4833    0.0888 C   0  0  0  1  0  0  0  0  0  0  0  0
    2.5241   -0.5532   -0.6060 C   0  0  0  1  0  0  0  0  0  0  0  0
   -2.7909    0.8888   -0.0325 C   0  0  0  1  0  0  0  0  0  0  0  0
   -3.5260   -1.4214    0.2160 C   0  0  0  1  0  0  0  0  0  0  0  0
    0.3747    1.2249   -2.2055 C   0  0  0  1  0  0  0  0  0  0  0  0
   -4.1054    1.3017   -0.0199 C   0  0  0  1  0  0  0  0  0  0  0  0
   -4.8215   -1.0091    0.2275 C   0  0  0  1  0  0  0  0  0  0  0  0
   -5.1314    0.3571    0.1134 C   0  0  0  1  0  0  0  0  0  0  0  0
    0.4711    2.5001   -2.7433 C   0  0  0  1  0  0  0  0  0  0  0  0
    0.6999    0.1198   -2.9787 C   0  0  0  1  0  0  0  0  0  0  0  0
    0.8853    2.6690   -4.0501 C   0  0  0  1  0  0  0  0  0  0  0  0
    1.1141    0.2890   -4.2854 C   0  0  0  1  0  0  0  0  0  0  0  0
    1.2049    1.5637   -4.8247 C   0  0  0  1  0  0  0  0  0  0  0  0
    1.9251    0.5479   -6.8508 C   0  0  0  1  0  0  0  0  0  0  0  0
   -1.1597   -2.8573    0.8971 H   0  0  0  1  0  0  0  0  0  0  0  0
    1.3598   -2.8800    0.5456 H   0  0  0  1  0  0  0  0  0  0  0  0
    3.2239   -1.3226   -0.2796 H   0  0  0  1  0  0  0  0  0  0  0  0
    2.5924   -0.4353   -1.6875 H   0  0  0  1  0  0  0  0  0  0  0  0
    2.7705    0.3914   -0.1212 H   0  0  0  1  0  0  0  0  0  0  0  0
   -3.2945   -2.4725    0.3045 H   0  0  0  1  0  0  0  0  0  0  0  0
   -4.3442    2.3509   -0.1120 H   0  0  0  1  0  0  0  0  0  0  0  0
   -5.6158   -1.7343    0.3248 H   0  0  0  1  0  0  0  0  0  0  0  0
    0.2219    3.3608   -2.1403 H   0  0  0  1  0  0  0  0  0  0  0  0
    0.6295   -0.8727   -2.5587 H   0  0  0  1  0  0  0  0  0  0  0  0
    0.9600    3.6617   -4.4689 H   0  0  0  1  0  0  0  0  0  0  0  0
    1.3672   -0.5713   -4.8873 H   0  0  0  1  0  0  0  0  0  0  0  0
   -2.1002    2.7118   -0.2374 H   0  0  0  1  0  0  0  0  0  0  0  0
    2.7343    0.0124   -6.3543 H   0  0  0  1  0  0  0  0  0  0  0  0
    1.0442   -0.0919   -6.9029 H   0  0  0  1  0  0  0  0  0  0  0  0
    2.2355    0.8216   -7.8592 H   0  0  0  1  0  0  0  0  0  0  0  0
  1  8  1  0  0  0  0
  1 14  1  0  0  0  0
  2 12  1  0  0  0  0
  2 36  1  0  0  0  0
  3 22  1  0  0  0  0
  3 23  1  0  0  0  0
  4 17  2  0  0  0  0
  5  6  1  0  0  0  0
  5  7  1  0  0  0  0
  5 24  1  0  0  0  0
  6  9  1  0  0  0  0
  6 25  1  0  0  0  0
  7  8  1  0  0  0  0
  7 10  2  0  0  0  0
  8  9  2  0  0  0  0
  9 11  1  0  0  0  0
 10 12  1  0  0  0  0
 10 13  1  0  0  0  0
 11 26  1  0  0  0  0
 11 27  1  0  0  0  0
 11 28  1  0  0  0  0
 12 15  2  0  0  0  0
 13 16  2  0  0  0  0
 13 29  1  0  0  0  0
 14 18  4  0  0  0  0
 14 19  4  0  0  0  0
 15 17  1  0  0  0  0
 15 30  1  0  0  0  0
 16 17  1  0  0  0  0
 16 31  1  0  0  0  0
 18 20  4  0  0  0  0
 18 32  1  0  0  0  0
 19 21  4  0  0  0  0
 19 33  1  0  0  0  0
 20 22  4  0  0  0  0
 20 34  1  0  0  0  0
 21 22  4  0  0  0  0
 21 35  1  0  0  0  0
 23 37  1  0  0  0  0
 23 38  1  0  0  0  0
 23 39  1  0  0  0  0
M  END
> <Activity>
0.01

> <Mapped(file=2032.csv.activities,property=Cached(PUBCHEM_COMPOUND_CID))>
100

> <MatchIndices>
224 

> <PUBCHEM_ATOM_DEF_STEREO_COUNT>
0

> <PUBCHEM_ATOM_UDEF_STEREO_COUNT>
0

> <PUBCHEM_BONDANNOTATIONS>
14  18  8
14  19  8
18  20  8
19  21  8
20  22  8
21  22  8

> <PUBCHEM_BOND_DEF_STEREO_COUNT>
1

> <PUBCHEM_BOND_UDEF_STEREO_COUNT>
0

> <PUBCHEM_CACTVS_COMPLEXITY>
623

> <PUBCHEM_CACTVS_HBOND_ACCEPTOR>
6

> <PUBCHEM_CACTVS_HBOND_DONOR>
3

> <PUBCHEM_CACTVS_ROTATABLE_BOND>
3

> <PUBCHEM_CACTVS_SUBSKEYS>
AAADceB7OAAAAAAAAAAAAAAAAAAAAQAAAAAwQAAAAAAAAAABAAAAHgAYCAAADAyBkAIyBoBiBgCIAqRSQACCCAAgIAIYqAAGCMgOJiKEMRqDeCCk0BEIuYfAQAAAAQAAAAAAAAACAAAAAAAAAAAAAAAAAA==

> <PUBCHEM_CACTVS_TAUTO_COUNT>
43

> <PUBCHEM_CACTVS_TPSA>
79.8

> <PUBCHEM_COMPONENT_COUNT>
1

> <PUBCHEM_COMPOUND_CANONICALIZED>
1

> <PUBCHEM_COMPOUND_CID>
5390025

> <PUBCHEM_COORDINATE_TYPE>
1
5
255

> <PUBCHEM_EXACT_MASS>
312.111007

> <PUBCHEM_HEAVY_ATOM_COUNT>
23

> <PUBCHEM_ISOTOPIC_ATOM_COUNT>
0

> <PUBCHEM_IUPAC_CAS_NAME>
(4E)-3-hydroxy-4-[4-(4-methoxyphenoxy)-5-methyl-1,2-dihydropyrazol-3-ylidene]-1-cyclohexa-2,5-dienone

> <PUBCHEM_IUPAC_INCHI>
InChI=1S/C17H16N2O4/c1-10-17(23-13-6-4-12(22-2)5-7-13)16(19-18-10)14-8-3-11(20)9-15(14)21/h3-9,18-19,21H,1-2H3/b16-14+

> <PUBCHEM_IUPAC_INCHIKEY>
IUUOPOOPFAXSCF-JQIJEIRASA-N

> <PUBCHEM_IUPAC_NAME>
(4E)-3-hydroxy-4-[4-(4-methoxyphenoxy)-5-methyl-1,2-dihydropyrazol-3-ylidene]cyclohexa-2,5-dien-1-one

> <PUBCHEM_IUPAC_OPENEYE_NAME>
(4E)-3-hydroxy-4-[4-(4-methoxyphenoxy)-5-methyl-1,2-dihydropyrazol-3-ylidene]cyclohexa-2,5-dien-1-one

> <PUBCHEM_IUPAC_SYSTEMATIC_NAME>
(4E)-4-[4-(4-methoxyphenoxy)-5-methyl-1,2-dihydropyrazol-3-ylidene]-3-oxidanyl-cyclohexa-2,5-dien-1-one

> <PUBCHEM_IUPAC_TRADITIONAL_NAME>
(4E)-3-hydroxy-4-[4-(4-methoxyphenoxy)-5-methyl-3-pyrazolin-3-ylidene]cyclohexa-2,5-dien-1-one

> <PUBCHEM_MOLECULAR_FORMULA>
C17H16N2O4

> <PUBCHEM_MOLECULAR_WEIGHT>
312.31994

> <PUBCHEM_MONOISOTOPIC_WEIGHT>
312.111007

> <PUBCHEM_OPENEYE_CAN_SMILES>
CC1=C(C(=C2C=CC(=O)C=C2O)NN1)OC3=CC=C(C=C3)OC

> <PUBCHEM_OPENEYE_ISO_SMILES>
CC1=C(/C(=C\2/C=CC(=O)C=C2O)/NN1)OC3=CC=C(C=C3)OC

> <PUBCHEM_TOTAL_CHARGE>
0

> <PUBCHEM_XLOGP3_AA>
2.3

$$$$
Largest isolated from Written by BCL::WriteToMDL,2935293
JMcorina  04211410293D 1   1.00000     0.00000 
CORINA 3.49 0026  01.06.2011
 49 50  0  0  0  0  0  0  0  0999 V2000
   -0.0173    1.4248    0.0099 O   0  0  0  1  0  0  0  0  0  0  0  0
   -2.8280   -4.0619    0.0072 N   0  0  0  1  0  0  0  0  0  0  0  0
   -1.4126   -2.0635    0.0045 C   0  0  0  1  0  0  0  0  0  0  0  0
   -4.1921   -4.6070    0.0173 C   0  0  0  1  0  0  0  0  0  0  0  0
   -2.8479   -2.5931    0.0153 C   0  0  0  1  0  0  0  0  0  0  0  0
   -1.4333   -0.5336    0.0129 C   0  0  0  1  0  0  0  0  0  0  0  0
   -4.1866   -5.9859   -0.5906 C   0  0  0  1  0  0  0  0  0  0  0  0
    0.0021   -0.0041    0.0020 C   0  0  0  1  0  0  0  0  0  0  0  0
   -4.6986   -4.6872    1.4588 C   0  0  0  1  0  0  0  0  0  0  0  0
   -5.2158   -6.3768   -1.4266 C   0  0  0  1  0  0  0  0  0  0  0  0
   -3.1495   -6.8578   -0.3168 C   0  0  0  1  0  0  0  0  0  0  0  0
    1.1850    2.0582    0.0018 C   0  0  0  1  0  0  0  0  0  0  0  0
    1.2402    3.4442    0.0087 C   0  0  0  1  0  0  0  0  0  0  0  0
   -5.2108   -7.6417   -1.9842 C   0  0  0  1  0  0  0  0  0  0  0  0
   -3.1444   -8.1227   -0.8745 C   0  0  0  1  0  0  0  0  0  0  0  0
    2.3596    1.3195   -0.0076 C   0  0  0  1  0  0  0  0  0  0  0  0
    2.4638    4.0857    0.0010 C   0  0  0  1  0  0  0  0  0  0  0  0
    3.6326    3.3475   -0.0137 C   0  0  0  1  0  0  0  0  0  0  0  0
   -4.1763   -8.5155   -1.7062 C   0  0  0  1  0  0  0  0  0  0  0  0
    3.5803    1.9656   -0.0153 C   0  0  0  1  0  0  0  0  0  0  0  0
   -0.0335    4.2495    0.0242 C   0  0  0  1  0  0  0  0  0  0  0  0
    4.9659    4.0499   -0.0226 C   0  0  0  1  0  0  0  0  0  0  0  0
   -0.8854   -2.4246    0.8875 H   0  0  0  1  0  0  0  0  0  0  0  0
   -0.9024   -2.4150   -0.8923 H   0  0  0  1  0  0  0  0  0  0  0  0
   -4.8474   -3.9569   -0.5624 H   0  0  0  1  0  0  0  0  0  0  0  0
   -3.3751   -2.2320   -0.8677 H   0  0  0  1  0  0  0  0  0  0  0  0
   -3.3581   -2.2415    0.9121 H   0  0  0  1  0  0  0  0  0  0  0  0
   -1.9605   -0.1726   -0.8702 H   0  0  0  1  0  0  0  0  0  0  0  0
   -1.9435   -0.1821    0.9097 H   0  0  0  1  0  0  0  0  0  0  0  0
   -2.2896   -4.4205    0.7816 H   0  0  0  1  0  0  0  0  0  0  0  0
    0.5123   -0.3556   -0.8948 H   0  0  0  1  0  0  0  0  0  0  0  0
    0.5293   -0.3651    0.8851 H   0  0  0  1  0  0  0  0  0  0  0  0
   -4.7026   -3.6898    1.8986 H   0  0  0  1  0  0  0  0  0  0  0  0
   -5.7108   -5.0916    1.4663 H   0  0  0  1  0  0  0  0  0  0  0  0
   -4.0433   -5.3372    2.0386 H   0  0  0  1  0  0  0  0  0  0  0  0
   -6.0240   -5.6941   -1.6437 H   0  0  0  1  0  0  0  0  0  0  0  0
   -2.3429   -6.5507    0.3325 H   0  0  0  1  0  0  0  0  0  0  0  0
   -6.0152   -7.9474   -2.6367 H   0  0  0  1  0  0  0  0  0  0  0  0
   -2.3339   -8.8038   -0.6609 H   0  0  0  1  0  0  0  0  0  0  0  0
    2.3193    0.2403   -0.0085 H   0  0  0  1  0  0  0  0  0  0  0  0
    2.5073    5.1648    0.0060 H   0  0  0  1  0  0  0  0  0  0  0  0
   -4.1726   -9.5038   -2.1416 H   0  0  0  1  0  0  0  0  0  0  0  0
    4.4948    1.3911   -0.0222 H   0  0  0  1  0  0  0  0  0  0  0  0
   -0.3315    4.4382    1.0555 H   0  0  0  1  0  0  0  0  0  0  0  0
    0.1306    5.1987   -0.4861 H   0  0  0  1  0  0  0  0  0  0  0  0
   -0.8207    3.6942   -0.4857 H   0  0  0  1  0  0  0  0  0  0  0  0
    5.2969    4.2141    1.0028 H   0  0  0  1  0  0  0  0  0  0  0  0
    5.6973    3.4344   -0.5464 H   0  0  0  1  0  0  0  0  0  0  0  0
    4.8678    5.0092   -0.5307 H   0  0  0  1  0  0  0  0  0  0  0  0
  1  8  1  0  0  0  0
  1 12  1  0  0  0  0
  2  4  1  0  0  0  0
  2  5  1  0  0  0  0
  2 30  1  0  0  0  0
  3  5  1  0  0  0  0
  3  6  1  0  0  0  0
  3 23  1  0  0  0  0
  3 24  1  0  0  0  0
  4  7  1  0  0  0  0
  4  9  1  0  0  0  0
  4 25  1  0  0  0  0
  5 26  1  0  0  0  0
  5 27  1  0  0  0  0
  6  8  1  0  0  0  0
  6 28  1  0  0  0  0
  6 29  1  0  0  0  0
  7 10  4  0  0  0  0
  7 11  4  0  0  0  0
  8 31  1  0  0  0  0
  8 32  1  0  0  0  0
  9 33  1  0  0  0  0
  9 34  1  0  0  0  0
  9 35  1  0  0  0  0
 10 14  4  0  0  0  0
 10 36  1  0  0  0  0
 11 15  4  0  0  0  0
 11 37  1  0  0  0  0
 12 13  4  0  0  0  0
 12 16  4  0  0  0  0
 13 17  4  0  0  0  0
 13 21  1  0  0  0  0
 14 19  4  0  0  0  0
 14 38  1  0  0  0  0
 15 19  4  0  0  0  0
 15 39  1  0  0  0  0
 16 20  4  0  0  0  0
 16 40  1  0  0  0  0
 17 18  4  0  0  0  0
 17 41  1  0  0  0  0
 18 20  4  0  0  0  0
 18 22  1  0  0  0  0
 19 42  1  0  0  0  0
 20 43  1  0  0  0  0
 21 44  1  0  0  0  0
 21 45  1  0  0  0  0
 21 46  1  0  0  0  0
 22 47  1  0  0  0  0
 22 48  1  0  0  0  0
 22 49  1  0  0  0  0
M  END
> <Activity>
0.01

> <Mapped(file=2032.csv.activities,property=Cached(PUBCHEM_COMPOUND_CID))>
100

> <MatchIndices>
174 

> <PUBCHEM_ATOM_DEF_STEREO_COUNT>
0

> <PUBCHEM_ATOM_UDEF_STEREO_COUNT>
1

> <PUBCHEM_BONDANNOTATIONS>
10  14  8
11  15  8
12  13  8
12  16  8
13  17  8
14  19  8
15  19  8
16  20  8
17  18  8
18  20  8
4  9  3
7  10  8
7  11  8

> <PUBCHEM_BOND_DEF_STEREO_COUNT>
0

> <PUBCHEM_BOND_UDEF_STEREO_COUNT>
0

> <PUBCHEM_CACTVS_COMPLEXITY>
287

> <PUBCHEM_CACTVS_HBOND_ACCEPTOR>
2

> <PUBCHEM_CACTVS_HBOND_DONOR>
1

> <PUBCHEM_CACTVS_ROTATABLE_BOND>
8

> <PUBCHEM_CACTVS_SUBSKEYS>
AAADceB6IAAAAAAAAAAAAAAAAAAAAAAAAAAwYAAAAAAAAAABQAAAHgAQAAAADCzhmAYyBoLABACAAiBCAACCCAAgIAAIiIAODIgMJiKEsRuGOCjk0BGIqAewwOAOIAACAAAIAABAAAQAABAAAAAAAAAAAA==

> <PUBCHEM_CACTVS_TAUTO_COUNT>
1

> <PUBCHEM_CACTVS_TPSA>
21.3

> <PUBCHEM_COMPONENT_COUNT>
1

> <PUBCHEM_COMPOUND_CANONICALIZED>
1

> <PUBCHEM_COMPOUND_CID>
2935293

> <PUBCHEM_COORDINATE_TYPE>
1
5
255

> <PUBCHEM_EXACT_MASS>
297.209264

> <PUBCHEM_HEAVY_ATOM_COUNT>
22

> <PUBCHEM_ISOTOPIC_ATOM_COUNT>
0

> <PUBCHEM_IUPAC_CAS_NAME>
4-(2,4-dimethylphenoxy)-N-(1-phenylethyl)-1-butanamine

> <PUBCHEM_IUPAC_INCHI>
InChI=1S/C20H27NO/c1-16-11-12-20(17(2)15-16)22-14-8-7-13-21-18(3)19-9-5-4-6-10-19/h4-6,9-12,15,18,21H,7-8,13-14H2,1-3H3

> <PUBCHEM_IUPAC_INCHIKEY>
LYGAAHYMZHBKOM-UHFFFAOYSA-N

> <PUBCHEM_IUPAC_NAME>
4-(2,4-dimethylphenoxy)-N-(1-phenylethyl)butan-1-amine

> <PUBCHEM_IUPAC_OPENEYE_NAME>
4-(2,4-dimethylphenoxy)-N-(1-phenylethyl)butan-1-amine

> <PUBCHEM_IUPAC_SYSTEMATIC_NAME>
4-(2,4-dimethylphenoxy)-N-(1-phenylethyl)butan-1-amine

> <PUBCHEM_IUPAC_TRADITIONAL_NAME>
4-(2,4-dimethylphenoxy)butyl-(1-phenylethyl)amine

> <PUBCHEM_MOLECULAR_FORMULA>
C20H27NO

> <PUBCHEM_MOLECULAR_WEIGHT>
297.43448

> <PUBCHEM_MONOISOTOPIC_WEIGHT>
297.209264

> <PUBCHEM_OPENEYE_CAN_SMILES>
CC1=CC(=C(C=C1)OCCCCNC(C)C2=CC=CC=C2)C

> <PUBCHEM_OPENEYE_ISO_SMILES>
CC1=CC(=C(C=C1)OCCCCNC(C)C2=CC=CC=C2)C

> <PUBCHEM_TOTAL_CHARGE>
0

> <PUBCHEM_XLOGP3_AA>
4.8

$$$$
Largest isolated from Written by BCL::WriteToMDL,766823
JMcorina  04211410293D 1   1.00000     0.00000 
CORINA 3.49 0026  01.06.2011
 46 47  0  0  0  0  0  0  0  0999 V2000
   -0.0164    1.3556    0.0095 O   0  0  0  1  0  0  0  0  0  0  0  0
    0.0487   -4.1360   -0.0088 O   0  0  0  1  0  0  0  0  0  0  0  0
   -3.4675    1.3580   -3.8833 O   0  0  0  1  0  0  0  0  0  0  0  0
    2.4161   -2.7314   -0.0366 O   0  0  0  1  0  0  0  0  0  0  0  0
   -2.8256    0.4790   -1.3287 N   0  0  0  1  0  0  0  0  0  0  0  0
   -2.5041    0.0236    0.0261 C   0  0  0  1  0  0  0  0  0  0  0  0
   -1.1897   -0.7135    0.0096 C   0  0  0  1  0  0  0  0  0  0  0  0
   -4.0065    1.1921   -1.5655 C   0  0  0  1  0  0  0  0  0  0  0  0
    0.0021   -0.0041    0.0020 C   0  0  0  1  0  0  0  0  0  0  0  0
   -1.1735   -2.0957    0.0077 C   0  0  0  1  0  0  0  0  0  0  0  0
    0.0335   -2.7753   -0.0074 C   0  0  0  1  0  0  0  0  0  0  0  0
   -4.3141    1.6260   -2.8531 C   0  0  0  1  0  0  0  0  0  0  0  0
   -4.8764    1.4639   -0.5196 C   0  0  0  1  0  0  0  0  0  0  0  0
    1.2124   -0.6806   -0.0136 C   0  0  0  1  0  0  0  0  0  0  0  0
    1.2303   -2.0659   -0.0213 C   0  0  0  1  0  0  0  0  0  0  0  0
   -6.0419    2.1684   -0.7560 C   0  0  0  1  0  0  0  0  0  0  0  0
   -5.4840    2.3314   -3.0815 C   0  0  0  1  0  0  0  0  0  0  0  0
   -6.3439    2.6032   -2.0332 C   0  0  0  1  0  0  0  0  0  0  0  0
   -6.9860    2.4629    0.3811 C   0  0  0  1  0  0  0  0  0  0  0  0
    1.2479    2.0216    0.0010 C   0  0  0  1  0  0  0  0  0  0  0  0
   -1.2172   -4.7989    0.0059 C   0  0  0  1  0  0  0  0  0  0  0  0
   -3.8476    1.8338   -5.1760 C   0  0  0  1  0  0  0  0  0  0  0  0
    3.6049   -1.9385   -0.0503 C   0  0  0  1  0  0  0  0  0  0  0  0
   -2.4296    0.8844    0.6906 H   0  0  0  1  0  0  0  0  0  0  0  0
   -3.2900   -0.6428    0.3815 H   0  0  0  1  0  0  0  0  0  0  0  0
   -2.2202    0.2862   -2.0616 H   0  0  0  1  0  0  0  0  0  0  0  0
   -2.1026   -2.6462    0.0184 H   0  0  0  1  0  0  0  0  0  0  0  0
   -4.6433    1.1248    0.4789 H   0  0  0  1  0  0  0  0  0  0  0  0
    2.1403   -0.1280   -0.0199 H   0  0  0  1  0  0  0  0  0  0  0  0
   -5.7247    2.6692   -4.0787 H   0  0  0  1  0  0  0  0  0  0  0  0
   -7.2560    3.1527   -2.2135 H   0  0  0  1  0  0  0  0  0  0  0  0
   -6.7180    3.4153    0.8385 H   0  0  0  1  0  0  0  0  0  0  0  0
   -8.0064    2.5164    0.0016 H   0  0  0  1  0  0  0  0  0  0  0  0
   -6.9165    1.6699    1.1257 H   0  0  0  1  0  0  0  0  0  0  0  0
    1.8173    1.7315    0.8840 H   0  0  0  1  0  0  0  0  0  0  0  0
    1.8003    1.7411   -0.8958 H   0  0  0  1  0  0  0  0  0  0  0  0
    1.0905    3.1001    0.0083 H   0  0  0  1  0  0  0  0  0  0  0  0
   -1.0624   -5.8778    0.0030 H   0  0  0  1  0  0  0  0  0  0  0  0
   -1.7667   -4.5130    0.9028 H   0  0  0  1  0  0  0  0  0  0  0  0
   -1.7881   -4.5114   -0.8771 H   0  0  0  1  0  0  0  0  0  0  0  0
   -3.9430    2.9193   -5.1501 H   0  0  0  1  0  0  0  0  0  0  0  0
   -3.0870    1.5532   -5.9046 H   0  0  0  1  0  0  0  0  0  0  0  0
   -4.8028    1.3918   -5.4594 H   0  0  0  1  0  0  0  0  0  0  0  0
    4.4773   -2.5918   -0.0617 H   0  0  0  1  0  0  0  0  0  0  0  0
    3.6112   -1.3084   -0.9397 H   0  0  0  1  0  0  0  0  0  0  0  0
    3.6330   -1.3104    0.8402 H   0  0  0  1  0  0  0  0  0  0  0  0
  1  9  1  0  0  0  0
  1 20  1  0  0  0  0
  2 11  1  0  0  0  0
  2 21  1  0  0  0  0
  3 12  1  0  0  0  0
  3 22  1  0  0  0  0
  4 15  1  0  0  0  0
  4 23  1  0  0  0  0
  5  6  1  0  0  0  0
  5  8  1  0  0  0  0
  5 26  1  0  0  0  0
  6  7  1  0  0  0  0
  6 24  1  0  0  0  0
  6 25  1  0  0  0  0
  7  9  4  0  0  0  0
  7 10  4  0  0  0  0
  8 12  4  0  0  0  0
  8 13  4  0  0  0  0
  9 14  4  0  0  0  0
 10 11  4  0  0  0  0
 10 27  1  0  0  0  0
 11 15  4  0  0  0  0
 12 17  4  0  0  0  0
 13 16  4  0  0  0  0
 13 28  1  0  0  0  0
 14 15  4  0  0  0  0
 14 29  1  0  0  0  0
 16 18  4  0  0  0  0
 16 19  1  0  0  0  0
 17 18  4  0  0  0  0
 17 30  1  0  0  0  0
 18 31  1  0  0  0  0
 19 32  1  0  0  0  0
 19 33  1  0  0  0  0
 19 34  1  0  0  0  0
 20 35  1  0  0  0  0
 20 36  1  0  0  0  0
 20 37  1  0  0  0  0
 21 38  1  0  0  0  0
 21 39  1  0  0  0  0
 21 40  1  0  0  0  0
 22 41  1  0  0  0  0
 22 42  1  0  0  0  0
 22 43  1  0  0  0  0
 23 44  1  0  0  0  0
 23 45  1  0  0  0  0
 23 46  1  0  0  0  0
M  END
> <Activity>
0.01

> <Mapped(file=2032.csv.activities,property=Cached(PUBCHEM_COMPOUND_CID))>
100

> <MatchIndices>
128 

> <PUBCHEM_ATOM_DEF_STEREO_COUNT>
0

> <PUBCHEM_ATOM_UDEF_STEREO_COUNT>
0

> <PUBCHEM_BONDANNOTATIONS>
10  11  8
11  15  8
12  17  8
13  16  8
14  15  8
16  18  8
17  18  8
7  10  8
7  9  8
8  12  8
8  13  8
9  14  8

> <PUBCHEM_BOND_DEF_STEREO_COUNT>
0

> <PUBCHEM_BOND_UDEF_STEREO_COUNT>
0

> <PUBCHEM_CACTVS_COMPLEXITY>
341

> <PUBCHEM_CACTVS_HBOND_ACCEPTOR>
5

> <PUBCHEM_CACTVS_HBOND_DONOR>
1

> <PUBCHEM_CACTVS_ROTATABLE_BOND>
7

> <PUBCHEM_CACTVS_SUBSKEYS>
AAADceB6OAAAAAAAAAAAAAAAAAAAAAAAAAAwYAAAAAAAAAABQAAAHgAQAAAADAzBmAYyxoLABACAAiRCQACCCAAhIgAIiIAP7IgPJyLEsZuFMCpn0BXa6Afw8D4OIQABSAAIUABCAAKQABCgAAAAAAAAAA==

> <PUBCHEM_CACTVS_TAUTO_COUNT>
1

> <PUBCHEM_CACTVS_TPSA>
49

> <PUBCHEM_COMPONENT_COUNT>
1

> <PUBCHEM_COMPOUND_CANONICALIZED>
1

> <PUBCHEM_COMPOUND_CID>
766823

> <PUBCHEM_COORDINATE_TYPE>
1
5
255

> <PUBCHEM_EXACT_MASS>
317.162708

> <PUBCHEM_HEAVY_ATOM_COUNT>
23

> <PUBCHEM_ISOTOPIC_ATOM_COUNT>
0

> <PUBCHEM_IUPAC_CAS_NAME>
2-methoxy-5-methyl-N-[(2,4,5-trimethoxyphenyl)methyl]aniline

> <PUBCHEM_IUPAC_INCHI>
InChI=1S/C18H23NO4/c1-12-6-7-15(20-2)14(8-12)19-11-13-9-17(22-4)18(23-5)10-16(13)21-3/h6-10,19H,11H2,1-5H3

> <PUBCHEM_IUPAC_INCHIKEY>
YCPIUHSPCGFCQJ-UHFFFAOYSA-N

> <PUBCHEM_IUPAC_NAME>
2-methoxy-5-methyl-N-[(2,4,5-trimethoxyphenyl)methyl]aniline

> <PUBCHEM_IUPAC_OPENEYE_NAME>
2-methoxy-5-methyl-N-[(2,4,5-trimethoxyphenyl)methyl]aniline

> <PUBCHEM_IUPAC_SYSTEMATIC_NAME>
2-methoxy-5-methyl-N-[(2,4,5-trimethoxyphenyl)methyl]aniline

> <PUBCHEM_IUPAC_TRADITIONAL_NAME>
(2-methoxy-5-methyl-phenyl)-(2,4,5-trimethoxybenzyl)amine

> <PUBCHEM_MOLECULAR_FORMULA>
C18H23NO4

> <PUBCHEM_MOLECULAR_WEIGHT>
317.37952

> <PUBCHEM_MONOISOTOPIC_WEIGHT>
317.162708

> <PUBCHEM_OPENEYE_CAN_SMILES>
CC1=CC(=C(C=C1)OC)NCC2=CC(=C(C=C2OC)OC)OC

> <PUBCHEM_OPENEYE_ISO_SMILES>
CC1=CC(=C(C=C1)OC)NCC2=CC(=C(C=C2OC)OC)OC

> <PUBCHEM_TOTAL_CHARGE>
0

> <PUBCHEM_XLOGP3_AA>
3.6

$$$$
Largest isolated from Written by BCL::WriteToMDL,2978550
JMcorina  04211410293D 1   1.00000     0.00000 
CORINA 3.49 0026  01.06.2011
 40 41  0  0  0  0  0  0  0  0999 V2000
   -0.0172    1.4168    0.0098 S   0  0  0  1  0  0  0  0  0  0  0  0
   -2.6410    0.3614    4.2483 F   0  0  0  1  0  0  0  0  0  0  0  0
    0.0021   -0.0041    0.0020 O   0  0  0  1  0  0  0  0  0  0  0  0
    1.1617    2.2101    0.0028 O   0  0  0  1  0  0  0  0  0  0  0  0
   -0.6589    4.1866    0.8654 O   0  0  0  1  0  0  0  0  0  0  0  0
   -0.9002    1.8797   -1.3124 N   0  0  0  1  0  0  0  0  0  0  0  0
   -0.4223    3.0414   -3.4044 C   0  0  0  1  0  0  0  0  0  0  0  0
   -1.5754    0.8294   -3.4089 C   0  0  0  1  0  0  0  0  0  0  0  0
   -1.5385    2.2150   -4.0474 C   0  0  0  1  0  0  0  0  0  0  0  0
   -0.7128    3.2090   -1.9097 C   0  0  0  1  0  0  0  0  0  0  0  0
   -1.8816    0.9668   -1.9142 C   0  0  0  1  0  0  0  0  0  0  0  0
   -2.6690   -0.0099   -4.0726 C   0  0  0  1  0  0  0  0  0  0  0  0
    0.9165    2.3249   -3.5923 C   0  0  0  1  0  0  0  0  0  0  0  0
   -0.9297    1.8941    1.4396 C   0  0  0  1  0  0  0  0  0  0  0  0
   -1.1487    3.2374    1.7063 C   0  0  0  1  0  0  0  0  0  0  0  0
   -1.4321    0.9302    2.2925 C   0  0  0  1  0  0  0  0  0  0  0  0
   -1.8678    3.6114    2.8321 C   0  0  0  1  0  0  0  0  0  0  0  0
   -2.1499    1.3049    3.4154 C   0  0  0  1  0  0  0  0  0  0  0  0
   -2.3645    2.6459    3.6859 C   0  0  0  1  0  0  0  0  0  0  0  0
   -0.9227    5.5501    1.2021 C   0  0  0  1  0  0  0  0  0  0  0  0
   -0.6100    0.3413   -3.5427 H   0  0  0  1  0  0  0  0  0  0  0  0
   -0.3792    4.0234   -3.8754 H   0  0  0  1  0  0  0  0  0  0  0  0
   -2.4947    2.7158   -3.8954 H   0  0  0  1  0  0  0  0  0  0  0  0
   -1.3470    2.1151   -5.1158 H   0  0  0  1  0  0  0  0  0  0  0  0
   -1.8132   -0.0102   -1.4358 H   0  0  0  1  0  0  0  0  0  0  0  0
   -2.8853    1.3709   -1.7825 H   0  0  0  1  0  0  0  0  0  0  0  0
   -1.6191    3.8000   -1.7776 H   0  0  0  1  0  0  0  0  0  0  0  0
    0.1265    3.7108   -1.4283 H   0  0  0  1  0  0  0  0  0  0  0  0
    1.1192    2.2069   -4.6568 H   0  0  0  1  0  0  0  0  0  0  0  0
    1.7111    2.9138   -3.1342 H   0  0  0  1  0  0  0  0  0  0  0  0
    0.8729    1.3436   -3.1198 H   0  0  0  1  0  0  0  0  0  0  0  0
   -2.4570   -0.1063   -5.1375 H   0  0  0  1  0  0  0  0  0  0  0  0
   -2.6950   -0.9994   -3.6163 H   0  0  0  1  0  0  0  0  0  0  0  0
   -3.6342    0.4782   -3.9371 H   0  0  0  1  0  0  0  0  0  0  0  0
   -1.2652   -0.1160    2.0829 H   0  0  0  1  0  0  0  0  0  0  0  0
   -2.0388    4.6571    3.0412 H   0  0  0  1  0  0  0  0  0  0  0  0
   -2.9240    2.9369    4.5627 H   0  0  0  1  0  0  0  0  0  0  0  0
   -0.4775    6.2026    0.4509 H   0  0  0  1  0  0  0  0  0  0  0  0
   -1.9997    5.7147    1.2341 H   0  0  0  1  0  0  0  0  0  0  0  0
   -0.4919    5.7731    2.1783 H   0  0  0  1  0  0  0  0  0  0  0  0
  1  3  2  0  0  0  0
  1  4  2  0  0  0  0
  1  6  1  0  0  0  0
  1 14  1  0  0  0  0
  2 18  1  0  0  0  0
  5 15  1  0  0  0  0
  5 20  1  0  0  0  0
  6 10  1  0  0  0  0
  6 11  1  0  0  0  0
  7  9  1  0  0  0  0
  7 10  1  0  0  0  0
  7 13  1  0  0  0  0
  7 22  1  0  0  0  0
  8  9  1  0  0  0  0
  8 11  1  0  0  0  0
  8 12  1  0  0  0  0
  8 21  1  0  0  0  0
  9 23  1  0  0  0  0
  9 24  1  0  0  0  0
 10 27  1  0  0  0  0
 10 28  1  0  0  0  0
 11 25  1  0  0  0  0
 11 26  1  0  0  0  0
 12 32  1  0  0  0  0
 12 33  1  0  0  0  0
 12 34  1  0  0  0  0
 13 29  1  0  0  0  0
 13 30  1  0  0  0  0
 13 31  1  0  0  0  0
 14 15  4  0  0  0  0
 14 16  4  0  0  0  0
 15 17  4  0  0  0  0
 16 18  4  0  0  0  0
 16 35  1  0  0  0  0
 17 19  4  0  0  0  0
 17 36  1  0  0  0  0
 18 19  4  0  0  0  0
 19 37  1  0  0  0  0
 20 38  1  0  0  0  0
 20 39  1  0  0  0  0
 20 40  1  0  0  0  0
M  END
> <Activity>
0.01

> <Mapped(file=2032.csv.activities,property=Cached(PUBCHEM_COMPOUND_CID))>
100

> <MatchIndices>
98 

> <PUBCHEM_ATOM_DEF_STEREO_COUNT>
0

> <PUBCHEM_ATOM_UDEF_STEREO_COUNT>
2

> <PUBCHEM_BONDANNOTATIONS>
14  15  8
14  16  8
15  17  8
16  18  8
17  19  8
18  19  8
7  13  3
8  12  3

> <PUBCHEM_BOND_DEF_STEREO_COUNT>
0

> <PUBCHEM_BOND_UDEF_STEREO_COUNT>
0

> <PUBCHEM_CACTVS_COMPLEXITY>
413

> <PUBCHEM_CACTVS_HBOND_ACCEPTOR>
5

> <PUBCHEM_CACTVS_HBOND_DONOR>
0

> <PUBCHEM_CACTVS_ROTATABLE_BOND>
3

> <PUBCHEM_CACTVS_SUBSKEYS>
AAADceByMQBAAAAAAAAAAAAAAAAAAAAAAAA8QAAAAAAAAAABAAAAHwQAQAAADQTB0A4yB4IABAKAACBCAHBCCBAgIAAIiBoOCIgMJiKEsRqEMCAkwBGIqAeQQAAMAAAAAAAAIAAAAAAAAABAAAAAAAAAAA==

> <PUBCHEM_CACTVS_TAUTO_COUNT>
1

> <PUBCHEM_CACTVS_TPSA>
55

> <PUBCHEM_COMPONENT_COUNT>
1

> <PUBCHEM_COMPOUND_CANONICALIZED>
1

> <PUBCHEM_COMPOUND_CID>
2978550

> <PUBCHEM_COORDINATE_TYPE>
1
5
255

> <PUBCHEM_EXACT_MASS>
301.114793

> <PUBCHEM_HEAVY_ATOM_COUNT>
20

> <PUBCHEM_ISOTOPIC_ATOM_COUNT>
0

> <PUBCHEM_IUPAC_CAS_NAME>
1-(5-fluoro-2-methoxyphenyl)sulfonyl-3,5-dimethylpiperidine

> <PUBCHEM_IUPAC_INCHI>
InChI=1S/C14H20FNO3S/c1-10-6-11(2)9-16(8-10)20(17,18)14-7-12(15)4-5-13(14)19-3/h4-5,7,10-11H,6,8-9H2,1-3H3

> <PUBCHEM_IUPAC_INCHIKEY>
OUHFXIVFJAQGHS-UHFFFAOYSA-N

> <PUBCHEM_IUPAC_NAME>
1-(5-fluoro-2-methoxyphenyl)sulfonyl-3,5-dimethylpiperidine

> <PUBCHEM_IUPAC_OPENEYE_NAME>
1-(5-fluoro-2-methoxy-phenyl)sulfonyl-3,5-dimethyl-piperidine

> <PUBCHEM_IUPAC_SYSTEMATIC_NAME>
1-(5-fluoranyl-2-methoxy-phenyl)sulfonyl-3,5-dimethyl-piperidine

> <PUBCHEM_IUPAC_TRADITIONAL_NAME>
1-(5-fluoro-2-methoxy-phenyl)sulfonyl-3,5-dimethyl-piperidine

> <PUBCHEM_MOLECULAR_FORMULA>
C14H20FNO3S

> <PUBCHEM_MOLECULAR_WEIGHT>
301.376903

> <PUBCHEM_MONOISOTOPIC_WEIGHT>
301.114793

> <PUBCHEM_OPENEYE_CAN_SMILES>
CC1CC(CN(C1)S(=O)(=O)C2=C(C=CC(=C2)F)OC)C

> <PUBCHEM_OPENEYE_ISO_SMILES>
CC1CC(CN(C1)S(=O)(=O)C2=C(C=CC(=C2)F)OC)C

> <PUBCHEM_TOTAL_CHARGE>
0

> <PUBCHEM_XLOGP3_AA>
2.9

$$$$
Largest isolated from Written by BCL::WriteToMDL,2952997
JMcorina  04211410293D 1   1.00000     0.00000 
CORINA 3.49 0026  01.06.2011
 37 39  0  0  0  0  0  0  0  0999 V2000
    6.6959   17.7442    6.9892 O   0  0  0  1  0  0  0  0  0  0  0  0
    6.6382   12.2915    6.0755 N   0  0  0  1  0  0  0  0  0  0  0  0
    7.7698   10.2635    5.9674 N   0  0  0  1  0  0  0  0  0  0  0  0
    8.9693   12.2441    6.1878 N   0  0  0  1  0  0  0  0  0  0  0  0
   11.3158   12.3200    6.3109 N   0  0  0  1  0  0  0  0  0  0  0  0
   10.1401   10.2037    6.0802 C   0  0  0  1  0  0  0  0  0  0  0  0
    8.8967    9.5358    5.9643 C   0  0  0  1  0  0  0  0  0  0  0  0
    6.6526   13.6725    6.3071 C   0  0  0  1  0  0  0  0  0  0  0  0
    7.8236   11.5771    6.0768 C   0  0  0  1  0  0  0  0  0  0  0  0
   10.1360   11.6168    6.1948 C   0  0  0  1  0  0  0  0  0  0  0  0
   11.3265    9.4634    6.0795 C   0  0  0  1  0  0  0  0  0  0  0  0
    8.8763    8.1394    5.8503 C   0  0  0  1  0  0  0  0  0  0  0  0
    5.7293   14.4930    5.6726 C   0  0  0  1  0  0  0  0  0  0  0  0
    7.5866   14.2214    7.1758 C   0  0  0  1  0  0  0  0  0  0  0  0
    6.6816   16.4031    6.7646 C   0  0  0  1  0  0  0  0  0  0  0  0
    5.7443   15.8547    5.9015 C   0  0  0  1  0  0  0  0  0  0  0  0
    7.6005   15.5834    7.4033 C   0  0  0  1  0  0  0  0  0  0  0  0
   11.2713    8.1046    5.9668 C   0  0  0  1  0  0  0  0  0  0  0  0
   10.0508    7.4463    5.8528 C   0  0  0  1  0  0  0  0  0  0  0  0
    7.6882   18.2407    7.8896 C   0  0  0  1  0  0  0  0  0  0  0  0
    7.5491   19.7591    8.0152 C   0  0  0  1  0  0  0  0  0  0  0  0
    5.7974   11.8355    5.9141 H   0  0  0  1  0  0  0  0  0  0  0  0
   12.2797    9.9635    6.1670 H   0  0  0  1  0  0  0  0  0  0  0  0
    7.9362    7.6152    5.7614 H   0  0  0  1  0  0  0  0  0  0  0  0
    5.0000   14.0663    5.0000 H   0  0  0  1  0  0  0  0  0  0  0  0
    8.3019   13.5834    7.6733 H   0  0  0  1  0  0  0  0  0  0  0  0
    5.0263   16.4930    5.4081 H   0  0  0  1  0  0  0  0  0  0  0  0
    8.3269   16.0106    8.0788 H   0  0  0  1  0  0  0  0  0  0  0  0
   12.1872    7.5324    5.9662 H   0  0  0  1  0  0  0  0  0  0  0  0
   10.0333    6.3700    5.7652 H   0  0  0  1  0  0  0  0  0  0  0  0
    7.5528   17.7812    8.8688 H   0  0  0  1  0  0  0  0  0  0  0  0
    8.6797   17.9970    7.5080 H   0  0  0  1  0  0  0  0  0  0  0  0
   11.2986   13.2867    6.3889 H   0  0  0  1  0  0  0  0  0  0  0  0
   12.1633   11.8481    6.3146 H   0  0  0  1  0  0  0  0  0  0  0  0
    8.3060   20.1378    8.7021 H   0  0  0  1  0  0  0  0  0  0  0  0
    7.6845   20.2186    7.0361 H   0  0  0  1  0  0  0  0  0  0  0  0
    6.5576   20.0028    8.3969 H   0  0  0  1  0  0  0  0  0  0  0  0
  1 15  1  0  0  0  0
  1 20  1  0  0  0  0
  2  8  1  0  0  0  0
  2  9  1  0  0  0  0
  2 22  1  0  0  0  0
  3  7  4  0  0  0  0
  3  9  4  0  0  0  0
  4  9  4  0  0  0  0
  4 10  4  0  0  0  0
  5 10  1  0  0  0  0
  5 33  1  0  0  0  0
  5 34  1  0  0  0  0
  6  7  4  0  0  0  0
  6 10  4  0  0  0  0
  6 11  4  0  0  0  0
  7 12  4  0  0  0  0
  8 13  4  0  0  0  0
  8 14  4  0  0  0  0
 11 18  4  0  0  0  0
 11 23  1  0  0  0  0
 12 19  4  0  0  0  0
 12 24  1  0  0  0  0
 13 16  4  0  0  0  0
 13 25  1  0  0  0  0
 14 17  4  0  0  0  0
 14 26  1  0  0  0  0
 15 16  4  0  0  0  0
 15 17  4  0  0  0  0
 16 27  1  0  0  0  0
 17 28  1  0  0  0  0
 18 19  4  0  0  0  0
 18 29  1  0  0  0  0
 19 30  1  0  0  0  0
 20 21  1  0  0  0  0
 20 31  1  0  0  0  0
 20 32  1  0  0  0  0
 21 35  1  0  0  0  0
 21 36  1  0  0  0  0
 21 37  1  0  0  0  0
M  END
> <Activity>
0.01

> <Mapped(file=2032.csv.activities,property=Cached(PUBCHEM_COMPOUND_CID))>
100

> <MatchIndices>
17 

> <PUBCHEM_ATOM_DEF_STEREO_COUNT>
0

> <PUBCHEM_ATOM_UDEF_STEREO_COUNT>
0

> <PUBCHEM_BONDANNOTATIONS>
12  19  8
13  20  8
14  17  8
15  18  8
16  17  8
16  18  8
19  20  8
4  10  8
4  8  8
5  10  8
5  11  8
7  11  8
7  12  8
7  8  8
8  13  8
9  14  8
9  15  8

> <PUBCHEM_BOND_DEF_STEREO_COUNT>
0

> <PUBCHEM_BOND_UDEF_STEREO_COUNT>
0

> <PUBCHEM_CACTVS_COMPLEXITY>
319

> <PUBCHEM_CACTVS_HBOND_ACCEPTOR>
1

> <PUBCHEM_CACTVS_HBOND_DONOR>
3

> <PUBCHEM_CACTVS_ROTATABLE_BOND>
4

> <PUBCHEM_CACTVS_SUBSKEYS>
AAADceB7oAAEAAAAAAAAAAAAAAAAAAAAAAA8YIAAAAAAAACx9AAAHgAQAAAADAyhngIz9vbIFACgAyZiZACCiCkhIqAJmCA2bJiMLqLE+duGPCjs0BNI6CewwAAOAEAAAAACAAAAgAAAAAQAAAAAAAAAAA==

> <PUBCHEM_CACTVS_TAUTO_COUNT>
12

> <PUBCHEM_CACTVS_TPSA>
73.1

> <PUBCHEM_COMPONENT_COUNT>
2

> <PUBCHEM_COMPOUND_CANONICALIZED>
1

> <PUBCHEM_COMPOUND_CID>
2952997

> <PUBCHEM_COORDINATE_TYPE>
1
5
255

> <PUBCHEM_EXACT_MASS>
316.109089

> <PUBCHEM_HEAVY_ATOM_COUNT>
22

> <PUBCHEM_ISOTOPIC_ATOM_COUNT>
0

> <PUBCHEM_IUPAC_CAS_NAME>
N2-(4-ethoxyphenyl)quinazoline-2,4-diamine hydrochloride

> <PUBCHEM_IUPAC_INCHI>
InChI=1S/C16H16N4O.ClH/c1-2-21-12-9-7-11(8-10-12)18-16-19-14-6-4-3-5-13(14)15(17)20-16;/h3-10H,2H2,1H3,(H3,17,18,19,20);1H

> <PUBCHEM_IUPAC_INCHIKEY>
DEGSOOYBAVYDEO-UHFFFAOYSA-N

> <PUBCHEM_IUPAC_NAME>
2-N-(4-ethoxyphenyl)quinazoline-2,4-diamine hydrochloride

> <PUBCHEM_IUPAC_OPENEYE_NAME>
N2-(4-ethoxyphenyl)quinazoline-2,4-diamine hydrochloride

> <PUBCHEM_IUPAC_SYSTEMATIC_NAME>
N2-(4-ethoxyphenyl)quinazoline-2,4-diamine hydrochloride

> <PUBCHEM_IUPAC_TRADITIONAL_NAME>
(4-aminoquinazolin-2-yl)-p-phenetyl-amine hydrochloride

> <PUBCHEM_MOLECULAR_FORMULA>
C16H17ClN4O

> <PUBCHEM_MOLECULAR_WEIGHT>
316.78538

> <PUBCHEM_MONOISOTOPIC_WEIGHT>
316.109089

> <PUBCHEM_OPENEYE_CAN_SMILES>
CCOC1=CC=C(C=C1)NC2=NC3=CC=CC=C3C(=N2)N.Cl

> <PUBCHEM_OPENEYE_ISO_SMILES>
CCOC1=CC=C(C=C1)NC2=NC3=CC=CC=C3C(=N2)N.Cl

> <PUBCHEM_TOTAL_CHARGE>
0

$$$$
Largest isolated from Written by BCL::WriteToMDL,1480282
JMcorina  04211410293D 1   1.00000     0.00000 
CORINA 3.49 0026  01.06.2011
 30 31  0  0  0  0  0  0  0  0999 V2000
   -1.2732   -0.4493   -2.6899 Cl  0  0  0  1  0  0  0  0  0  0  0  0
   -1.2167   -0.4916    2.7127 Cl  0  0  0  1  0  0  0  0  0  0  0  0
   -0.0225    1.8097    0.0120 S   0  0  0  1  0  0  0  0  0  0  0  0
    3.9117    3.5020   -0.0154 S   0  0  0  1  0  0  0  0  0  0  0  0
    0.1337    4.5854    0.0248 O   0  0  0  1  0  0  0  0  0  0  0  0
    1.9224    5.9055    0.0151 N   0  0  0  1  0  0  0  0  0  0  0  0
    0.0021   -0.0041    0.0020 C   0  0  0  1  0  0  0  0  0  0  0  0
   -1.4117   -0.5257    0.0127 C   0  0  0  1  0  0  0  0  0  0  0  0
    1.6887    2.2294   -0.0021 C   0  0  0  1  0  0  0  0  0  0  0  0
    2.1538    3.5244    0.0004 C   0  0  0  1  0  0  0  0  0  0  0  0
   -2.0723   -0.7588   -1.1801 C   0  0  0  1  0  0  0  0  0  0  0  0
   -2.0474   -0.7770    1.2153 C   0  0  0  1  0  0  0  0  0  0  0  0
    2.7052    1.2918   -0.0160 C   0  0  0  1  0  0  0  0  0  0  0  0
   -3.3702   -1.2381   -1.1697 C   0  0  0  1  0  0  0  0  0  0  0  0
   -3.3453   -1.2564    1.2245 C   0  0  0  1  0  0  0  0  0  0  0  0
    1.3476    4.6864    0.0141 C   0  0  0  1  0  0  0  0  0  0  0  0
    3.9407    1.7967   -0.0245 C   0  0  0  1  0  0  0  0  0  0  0  0
   -4.0068   -1.4837    0.0323 C   0  0  0  1  0  0  0  0  0  0  0  0
    1.0874    7.1091    0.0293 C   0  0  0  1  0  0  0  0  0  0  0  0
    0.5123   -0.3556   -0.8948 H   0  0  0  1  0  0  0  0  0  0  0  0
    0.5293   -0.3651    0.8851 H   0  0  0  1  0  0  0  0  0  0  0  0
    2.5134    0.2290   -0.0195 H   0  0  0  1  0  0  0  0  0  0  0  0
   -3.8860   -1.4201   -2.1009 H   0  0  0  1  0  0  0  0  0  0  0  0
   -3.8417   -1.4527    2.1634 H   0  0  0  1  0  0  0  0  0  0  0  0
    4.8422    1.2022   -0.0360 H   0  0  0  1  0  0  0  0  0  0  0  0
   -5.0200   -1.8575    0.0400 H   0  0  0  1  0  0  0  0  0  0  0  0
    2.8891    5.9859    0.0066 H   0  0  0  1  0  0  0  0  0  0  0  0
    1.7245    7.9934    0.0280 H   0  0  0  1  0  0  0  0  0  0  0  0
    0.4498    7.1194   -0.8548 H   0  0  0  1  0  0  0  0  0  0  0  0
    0.4664    7.1100    0.9251 H   0  0  0  1  0  0  0  0  0  0  0  0
  1 11  1  0  0  0  0
  2 12  1  0  0  0  0
  3  7  1  0  0  0  0
  3  9  1  0  0  0  0
  4 10  4  0  0  0  0
  4 17  4  0  0  0  0
  5 16  2  0  0  0  0
  6 16  1  0  0  0  0
  6 19  1  0  0  0  0
  6 27  1  0  0  0  0
  7  8  1  0  0  0  0
  7 20  1  0  0  0  0
  7 21  1  0  0  0  0
  8 11  4  0  0  0  0
  8 12  4  0  0  0  0
  9 10  4  0  0  0  0
  9 13  4  0  0  0  0
 10 16  1  0  0  0  0
 11 14  4  0  0  0  0
 12 15  4  0  0  0  0
 13 17  4  0  0  0  0
 13 22  1  0  0  0  0
 14 18  4  0  0  0  0
 14 23  1  0  0  0  0
 15 18  4  0  0  0  0
 15 24  1  0  0  0  0
 17 25  1  0  0  0  0
 18 26  1  0  0  0  0
 19 28  1  0  0  0  0
 19 29  1  0  0  0  0
 19 30  1  0  0  0  0
M  END
> <Activity>
0.01

> <Mapped(file=2032.csv.activities,property=Cached(PUBCHEM_COMPOUND_CID))>
100

> <MatchIndices>
74 

> <PUBCHEM_ATOM_DEF_STEREO_COUNT>
0

> <PUBCHEM_ATOM_UDEF_STEREO_COUNT>
0

> <PUBCHEM_BONDANNOTATIONS>
11  14  8
12  15  8
13  17  8
14  18  8
15  18  8
4  10  8
4  17  8
8  11  8
8  12  8
9  10  8
9  13  8

> <PUBCHEM_BOND_DEF_STEREO_COUNT>
0

> <PUBCHEM_BOND_UDEF_STEREO_COUNT>
0

> <PUBCHEM_CACTVS_COMPLEXITY>
309

> <PUBCHEM_CACTVS_HBOND_ACCEPTOR>
3

> <PUBCHEM_CACTVS_HBOND_DONOR>
1

> <PUBCHEM_CACTVS_ROTATABLE_BOND>
4

> <PUBCHEM_CACTVS_SUBSKEYS>
AAADccByIABmAAAAAAAAAAAAAAAAASAAAAAwAAAAAAAAAAABwAAAHgYQAAAADAKF2CSyAYLAAAiMAiFSEACDAIAkDRBIiJkIBsgIIDKhlxGEIQhgggAoiQcYgAAOAAAAAACBAAAAAAAAAQIAAAAAAAAAAA==

> <PUBCHEM_CACTVS_TAUTO_COUNT>
2

> <PUBCHEM_CACTVS_TPSA>
82.6

> <PUBCHEM_COMPONENT_COUNT>
1

> <PUBCHEM_COMPOUND_CANONICALIZED>
1

> <PUBCHEM_COMPOUND_CID>
1480282

> <PUBCHEM_COORDINATE_TYPE>
1
5
255

> <PUBCHEM_EXACT_MASS>
330.965911

> <PUBCHEM_HEAVY_ATOM_COUNT>
19

> <PUBCHEM_ISOTOPIC_ATOM_COUNT>
0

> <PUBCHEM_IUPAC_CAS_NAME>
3-[(2,6-dichlorophenyl)methylthio]-N-methyl-2-thiophenecarboxamide

> <PUBCHEM_IUPAC_INCHI>
InChI=1S/C13H11Cl2NOS2/c1-16-13(17)12-11(5-6-18-12)19-7-8-9(14)3-2-4-10(8)15/h2-6H,7H2,1H3,(H,16,17)

> <PUBCHEM_IUPAC_INCHIKEY>
GJIDJZFFJQXZJF-UHFFFAOYSA-N

> <PUBCHEM_IUPAC_NAME>
3-[(2,6-dichlorophenyl)methylsulfanyl]-N-methylthiophene-2-carboxamide

> <PUBCHEM_IUPAC_OPENEYE_NAME>
3-[(2,6-dichlorophenyl)methylsulfanyl]-N-methyl-thiophene-2-carboxamide

> <PUBCHEM_IUPAC_SYSTEMATIC_NAME>
3-[[2,6-bis(chloranyl)phenyl]methylsulfanyl]-N-methyl-thiophene-2-carboxamide

> <PUBCHEM_IUPAC_TRADITIONAL_NAME>
3-[(2,6-dichlorobenzyl)thio]-N-methyl-thiophene-2-carboxamide

> <PUBCHEM_MOLECULAR_FORMULA>
C13H11Cl2NOS2

> <PUBCHEM_MOLECULAR_WEIGHT>
332.26854

> <PUBCHEM_MONOISOTOPIC_WEIGHT>
330.965911

> <PUBCHEM_OPENEYE_CAN_SMILES>
CNC(=O)C1=C(C=CS1)SCC2=C(C=CC=C2Cl)Cl

> <PUBCHEM_OPENEYE_ISO_SMILES>
CNC(=O)C1=C(C=CS1)SCC2=C(C=CC=C2Cl)Cl

> <PUBCHEM_TOTAL_CHARGE>
0

> <PUBCHEM_XLOGP3_AA>
4.5

$$$$
Largest isolated from Written by BCL::WriteToMDL,6323818
JMcorina  04211410293D 1   1.00000     0.00000 
CORINA 3.49 0026  01.06.2011
 41 43  0  0  0  0  0  0  0  0999 V2000
   -0.1222    1.9745    0.2785 S   0  0  0  1  0  0  0  0  0  0  0  0
    0.4658   -4.4120   -0.7355 O   0  0  0  1  0  0  0  0  0  0  0  0
   -1.0363   -0.6646    0.3108 N   0  0  0  1  0  0  0  0  0  0  0  0
    0.7323   -1.8075   -0.2309 N   0  0  0  1  0  0  0  0  0  0  0  0
    1.0616   -0.4451   -0.2105 N   0  0  0  1  0  0  0  0  0  0  0  0
    2.8987    7.0390    3.4241 N   0  0  0  1  0  0  0  0  0  0  0  0
   -0.5655   -1.9124    0.0940 C   0  0  0  1  0  0  0  0  0  0  0  0
   -0.0111    0.2235    0.1161 C   0  0  0  1  0  0  0  0  0  0  0  0
   -2.4102   -0.3195    0.6843 C   0  0  0  1  0  0  0  0  0  0  0  0
   -1.3332   -3.1554    0.1953 C   0  0  0  1  0  0  0  0  0  0  0  0
    1.5814    2.4360   -0.1226 C   0  0  0  1  0  0  0  0  0  0  0  0
   -0.7691   -4.3797   -0.2342 C   0  0  0  1  0  0  0  0  0  0  0  0
   -2.6300   -3.1437    0.7235 C   0  0  0  1  0  0  0  0  0  0  0  0
    1.7274    3.9340   -0.0454 C   0  0  0  1  0  0  0  0  0  0  0  0
   -2.5764   -0.4620    2.1753 C   0  0  0  1  0  0  0  0  0  0  0  0
   -1.5195   -5.5570   -0.1284 C   0  0  0  1  0  0  0  0  0  0  0  0
   -3.3452   -4.3151    0.8161 C   0  0  0  1  0  0  0  0  0  0  0  0
    2.0899    4.5296    1.1446 C   0  0  0  1  0  0  0  0  0  0  0  0
    1.5031    4.7083   -1.1702 C   0  0  0  1  0  0  0  0  0  0  0  0
   -2.7933   -5.5163    0.3895 C   0  0  0  1  0  0  0  0  0  0  0  0
    2.2252    5.9178    1.2141 C   0  0  0  1  0  0  0  0  0  0  0  0
    1.6354    6.0839   -1.1085 C   0  0  0  1  0  0  0  0  0  0  0  0
    1.9922    6.6933    0.0768 C   0  0  0  1  0  0  0  0  0  0  0  0
   -3.0063    0.5508    2.8862 C   0  0  0  1  0  0  0  0  0  0  0  0
    2.6007    6.5430    2.4465 C   0  0  0  1  0  0  0  0  0  0  0  0
   -2.6185    0.7098    0.3922 H   0  0  0  1  0  0  0  0  0  0  0  0
   -3.1040   -0.9889    0.1757 H   0  0  0  1  0  0  0  0  0  0  0  0
    1.3325   -2.5400   -0.4409 H   0  0  0  1  0  0  0  0  0  0  0  0
    2.2618    1.9676    0.5886 H   0  0  0  1  0  0  0  0  0  0  0  0
    1.8213    2.0990   -1.1310 H   0  0  0  1  0  0  0  0  0  0  0  0
   -3.0684   -2.2153    1.0584 H   0  0  0  1  0  0  0  0  0  0  0  0
   -2.3411   -1.3992    2.6577 H   0  0  0  1  0  0  0  0  0  0  0  0
   -1.0985   -6.4969   -0.4536 H   0  0  0  1  0  0  0  0  0  0  0  0
   -4.3450   -4.3007    1.2242 H   0  0  0  1  0  0  0  0  0  0  0  0
    2.2683    3.9238    2.0208 H   0  0  0  1  0  0  0  0  0  0  0  0
    1.2239    4.2364   -2.1007 H   0  0  0  1  0  0  0  0  0  0  0  0
   -3.3680   -6.4272    0.4687 H   0  0  0  1  0  0  0  0  0  0  0  0
    1.4592    6.6823   -1.9902 H   0  0  0  1  0  0  0  0  0  0  0  0
    2.0951    7.7674    0.1237 H   0  0  0  1  0  0  0  0  0  0  0  0
   -3.2416    1.4880    2.4037 H   0  0  0  1  0  0  0  0  0  0  0  0
   -3.1254    0.4487    3.9547 H   0  0  0  1  0  0  0  0  0  0  0  0
  1  8  1  0  0  0  0
  1 11  1  0  0  0  0
  2 12  2  0  0  0  0
  3  7  1  0  0  0  0
  3  8  1  0  0  0  0
  3  9  1  0  0  0  0
  4  5  1  0  0  0  0
  4  7  1  0  0  0  0
  4 28  1  0  0  0  0
  5  8  2  0  0  0  0
  6 25  3  0  0  0  0
  7 10  2  0  0  0  0
  9 15  1  0  0  0  0
  9 26  1  0  0  0  0
  9 27  1  0  0  0  0
 10 12  1  0  0  0  0
 10 13  1  0  0  0  0
 11 14  1  0  0  0  0
 11 29  1  0  0  0  0
 11 30  1  0  0  0  0
 12 16  1  0  0  0  0
 13 17  2  0  0  0  0
 13 31  1  0  0  0  0
 14 18  4  0  0  0  0
 14 19  4  0  0  0  0
 15 24  2  0  0  0  0
 15 32  1  0  0  0  0
 16 20  2  0  0  0  0
 16 33  1  0  0  0  0
 17 20  1  0  0  0  0
 17 34  1  0  0  0  0
 18 21  4  0  0  0  0
 18 35  1  0  0  0  0
 19 22  4  0  0  0  0
 19 36  1  0  0  0  0
 20 37  1  0  0  0  0
 21 23  4  0  0  0  0
 21 25  1  0  0  0  0
 22 23  4  0  0  0  0
 22 38  1  0  0  0  0
 23 39  1  0  0  0  0
 24 40  1  0  0  0  0
 24 41  1  0  0  0  0
M  END
> <Activity>
0.01

> <Mapped(file=2032.csv.activities,property=Cached(PUBCHEM_COMPOUND_CID))>
100

> <MatchIndices>
142 

> <PUBCHEM_ATOM_DEF_STEREO_COUNT>
0

> <PUBCHEM_ATOM_UDEF_STEREO_COUNT>
0

> <PUBCHEM_BONDANNOTATIONS>
14  18  8
14  19  8
18  21  8
19  22  8
21  23  8
22  23  8

> <PUBCHEM_BOND_DEF_STEREO_COUNT>
1

> <PUBCHEM_BOND_UDEF_STEREO_COUNT>
0

> <PUBCHEM_CACTVS_COMPLEXITY>
725

> <PUBCHEM_CACTVS_HBOND_ACCEPTOR>
5

> <PUBCHEM_CACTVS_HBOND_DONOR>
1

> <PUBCHEM_CACTVS_ROTATABLE_BOND>
5

> <PUBCHEM_CACTVS_SUBSKEYS>
AAADceB7oABAAAAAAAAAAAAAAAAAAQAAAAAwQAAAAAAAAAABAAAAHgQYAAAADATF2ASxAINiAAi4BqBSYACyAABgABANiAEIAMiIoCKgGRCAIAAggAIIic8AgEAOAAACAAAAAAAAAAQAAAAAAAAAAAAAAA==

> <PUBCHEM_CACTVS_TAUTO_COUNT>
4

> <PUBCHEM_CACTVS_TPSA>
93.8

> <PUBCHEM_COMPONENT_COUNT>
1

> <PUBCHEM_COMPOUND_CANONICALIZED>
1

> <PUBCHEM_COMPOUND_CID>
6323818

> <PUBCHEM_COORDINATE_TYPE>
1
5
255

> <PUBCHEM_EXACT_MASS>
348.104482

> <PUBCHEM_HEAVY_ATOM_COUNT>
25

> <PUBCHEM_ISOTOPIC_ATOM_COUNT>
0

> <PUBCHEM_IUPAC_CAS_NAME>
3-[[[(5Z)-5-(6-oxo-1-cyclohexa-2,4-dienylidene)-4-prop-2-enyl-1H-1,2,4-triazol-3-yl]thio]methyl]benzonitrile

> <PUBCHEM_IUPAC_INCHI>
InChI=1S/C19H16N4OS/c1-2-10-23-18(16-8-3-4-9-17(16)24)21-22-19(23)25-13-15-7-5-6-14(11-15)12-20/h2-9,11,21H,1,10,13H2/b18-16+

> <PUBCHEM_IUPAC_INCHIKEY>
YPPORRLROSTXFU-FBMGVBCBSA-N

> <PUBCHEM_IUPAC_NAME>
3-[[(5Z)-5-(6-oxocyclohexa-2,4-dien-1-ylidene)-4-prop-2-enyl-1H-1,2,4-triazol-3-yl]sulfanylmethyl]benzonitrile

> <PUBCHEM_IUPAC_OPENEYE_NAME>
3-[[(5Z)-4-allyl-5-(6-oxocyclohexa-2,4-dien-1-ylidene)-1H-1,2,4-triazol-3-yl]sulfanylmethyl]benzonitrile

> <PUBCHEM_IUPAC_SYSTEMATIC_NAME>
3-[[(5Z)-5-(6-oxidanylidenecyclohexa-2,4-dien-1-ylidene)-4-prop-2-enyl-1H-1,2,4-triazol-3-yl]sulfanylmethyl]benzenecarbonitrile

> <PUBCHEM_IUPAC_TRADITIONAL_NAME>
3-[[[(5Z)-4-allyl-5-(6-ketocyclohexa-2,4-dien-1-ylidene)-1H-1,2,4-triazol-3-yl]thio]methyl]benzonitrile

> <PUBCHEM_MOLECULAR_FORMULA>
C19H16N4OS

> <PUBCHEM_MOLECULAR_WEIGHT>
348.42154

> <PUBCHEM_MONOISOTOPIC_WEIGHT>
348.104482

> <PUBCHEM_OPENEYE_CAN_SMILES>
C=CCN1C(=C2C=CC=CC2=O)NN=C1SCC3=CC=CC(=C3)C#N

> <PUBCHEM_OPENEYE_ISO_SMILES>
C=CCN1/C(=C/2\C=CC=CC2=O)/NN=C1SCC3=CC=CC(=C3)C#N

> <PUBCHEM_TOTAL_CHARGE>
0

> <PUBCHEM_XLOGP3_AA>
3.7

$$$$
Largest isolated from Written by BCL::WriteToMDL,8232846
JMcorina  04211410293D 1   1.00000     0.00000 
CORINA 3.49 0026  01.06.2011
 45 47  0  0  0  0  0  0  0  0999 V2000
   -2.9432   -0.6516   -2.5231 O   0  0  0  1  0  0  0  0  0  0  0  0
   -0.1543   -0.5909   -0.5417 O   0  0  0  1  0  0  0  0  0  0  0  0
   -6.5277    2.3098   -1.8987 N   0  0  0  1  0  0  0  0  0  0  0  0
   -4.0470    1.0445   -1.6135 N   0  0  0  1  0  0  0  0  0  0  0  0
   -8.3289    3.9249   -1.6738 C   0  0  0  1  0  0  0  0  0  0  0  0
   -8.8575    2.5007   -1.3594 C   0  0  0  1  0  0  0  0  0  0  0  0
   -6.7971    3.7390   -1.6561 C   0  0  0  1  0  0  0  0  0  0  0  0
   -7.8179    1.6131   -2.0882 C   0  0  0  1  0  0  0  0  0  0  0  0
   -5.6970    2.1379   -3.0110 C   0  0  0  1  0  0  0  0  0  0  0  0
   -4.4608    1.5071   -2.8701 C   0  0  0  1  0  0  0  0  0  0  0  0
   -6.1025    2.5889   -4.2581 C   0  0  0  1  0  0  0  0  0  0  0  0
   -3.6426    1.3395   -3.9766 C   0  0  0  1  0  0  0  0  0  0  0  0
   -5.2797    2.4178   -5.3561 C   0  0  0  1  0  0  0  0  0  0  0  0
   -4.0524    1.7974   -5.2153 C   0  0  0  1  0  0  0  0  0  0  0  0
   -3.3136   -0.0822   -1.5182 C   0  0  0  1  0  0  0  0  0  0  0  0
   -2.9537   -0.6346   -0.1631 C   0  0  0  1  0  0  0  0  0  0  0  0
   -2.1369   -1.8896   -0.3330 C   0  0  0  1  0  0  0  0  0  0  0  0
   -0.7640   -1.8052   -0.5155 C   0  0  0  1  0  0  0  0  0  0  0  0
   -2.7535   -3.1252   -0.3014 C   0  0  0  1  0  0  0  0  0  0  0  0
   -0.0150   -2.9622   -0.6716 C   0  0  0  1  0  0  0  0  0  0  0  0
   -2.0045   -4.2772   -0.4573 C   0  0  0  1  0  0  0  0  0  0  0  0
   -0.6373   -4.1955   -0.6450 C   0  0  0  1  0  0  0  0  0  0  0  0
    1.2617   -0.5800   -0.7336 C   0  0  0  1  0  0  0  0  0  0  0  0
   -8.8503    2.3095   -0.2864 H   0  0  0  1  0  0  0  0  0  0  0  0
   -9.8550    2.3541   -1.7739 H   0  0  0  1  0  0  0  0  0  0  0  0
   -8.6660    4.2528   -2.6571 H   0  0  0  1  0  0  0  0  0  0  0  0
   -8.6404    4.6304   -0.9034 H   0  0  0  1  0  0  0  0  0  0  0  0
   -8.0579    1.5408   -3.1490 H   0  0  0  1  0  0  0  0  0  0  0  0
   -7.7834    0.6212   -1.6376 H   0  0  0  1  0  0  0  0  0  0  0  0
   -6.3992    4.0316   -0.6845 H   0  0  0  1  0  0  0  0  0  0  0  0
   -6.3414    4.3408   -2.4424 H   0  0  0  1  0  0  0  0  0  0  0  0
   -7.0608    3.0737   -4.3717 H   0  0  0  1  0  0  0  0  0  0  0  0
   -2.6849    0.8516   -3.8711 H   0  0  0  1  0  0  0  0  0  0  0  0
   -4.2884    1.5353   -0.8124 H   0  0  0  1  0  0  0  0  0  0  0  0
   -5.5970    2.7697   -6.3267 H   0  0  0  1  0  0  0  0  0  0  0  0
   -3.4134    1.6667   -6.0761 H   0  0  0  1  0  0  0  0  0  0  0  0
   -2.3730    0.1049    0.3883 H   0  0  0  1  0  0  0  0  0  0  0  0
   -3.8648   -0.8661    0.3886 H   0  0  0  1  0  0  0  0  0  0  0  0
   -3.8214   -3.1917   -0.1546 H   0  0  0  1  0  0  0  0  0  0  0  0
    1.0537   -2.8991   -0.8142 H   0  0  0  1  0  0  0  0  0  0  0  0
   -2.4885   -5.2424   -0.4320 H   0  0  0  1  0  0  0  0  0  0  0  0
   -0.0546   -5.0966   -0.7669 H   0  0  0  1  0  0  0  0  0  0  0  0
    1.6204    0.4493   -0.7343 H   0  0  0  1  0  0  0  0  0  0  0  0
    1.7421   -1.1316    0.0746 H   0  0  0  1  0  0  0  0  0  0  0  0
    1.5028   -1.0495   -1.6873 H   0  0  0  1  0  0  0  0  0  0  0  0
  1 15  2  0  0  0  0
  2 18  1  0  0  0  0
  2 23  1  0  0  0  0
  3  7  1  0  0  0  0
  3  8  1  0  0  0  0
  3  9  1  0  0  0  0
  4 10  1  0  0  0  0
  4 15  1  0  0  0  0
  4 34  1  0  0  0  0
  5  6  1  0  0  0  0
  5  7  1  0  0  0  0
  5 26  1  0  0  0  0
  5 27  1  0  0  0  0
  6  8  1  0  0  0  0
  6 24  1  0  0  0  0
  6 25  1  0  0  0  0
  7 30  1  0  0  0  0
  7 31  1  0  0  0  0
  8 28  1  0  0  0  0
  8 29  1  0  0  0  0
  9 10  4  0  0  0  0
  9 11  4  0  0  0  0
 10 12  4  0  0  0  0
 11 13  4  0  0  0  0
 11 32  1  0  0  0  0
 12 14  4  0  0  0  0
 12 33  1  0  0  0  0
 13 14  4  0  0  0  0
 13 35  1  0  0  0  0
 14 36  1  0  0  0  0
 15 16  1  0  0  0  0
 16 17  1  0  0  0  0
 16 37  1  0  0  0  0
 16 38  1  0  0  0  0
 17 18  4  0  0  0  0
 17 19  4  0  0  0  0
 18 20  4  0  0  0  0
 19 21  4  0  0  0  0
 19 39  1  0  0  0  0
 20 22  4  0  0  0  0
 20 40  1  0  0  0  0
 21 22  4  0  0  0  0
 21 41  1  0  0  0  0
 22 42  1  0  0  0  0
 23 43  1  0  0  0  0
 23 44  1  0  0  0  0
 23 45  1  0  0  0  0
M  END
> <Activity>
0.01

> <Mapped(file=2032.csv.activities,property=Cached(PUBCHEM_COMPOUND_CID))>
100

> <MatchIndices>
91 

> <PUBCHEM_ATOM_DEF_STEREO_COUNT>
0

> <PUBCHEM_ATOM_UDEF_STEREO_COUNT>
0

> <PUBCHEM_BONDANNOTATIONS>
10  12  8
11  13  8
12  14  8
13  14  8
17  18  8
17  19  8
18  20  8
19  21  8
20  22  8
21  22  8
9  10  8
9  11  8

> <PUBCHEM_BOND_DEF_STEREO_COUNT>
0

> <PUBCHEM_BOND_UDEF_STEREO_COUNT>
0

> <PUBCHEM_CACTVS_COMPLEXITY>
382

> <PUBCHEM_CACTVS_HBOND_ACCEPTOR>
3

> <PUBCHEM_CACTVS_HBOND_DONOR>
1

> <PUBCHEM_CACTVS_ROTATABLE_BOND>
5

> <PUBCHEM_CACTVS_SUBSKEYS>
AAADceB7MAAAAAAAAAAAAAAAAAAAAWAAAAAwYAAAAAAAAAABQAAAHgAQAAAADAzBmAYyxoPABACIAiVSUACCCAAhIgAIiAEOfIgMZjLEtZuUMChk1BHI6Ae6yKCOAAAAAAAIACAAAAAAABAAQAAAAAAAAA==

> <PUBCHEM_CACTVS_TAUTO_COUNT>
3

> <PUBCHEM_CACTVS_TPSA>
41.6

> <PUBCHEM_COMPONENT_COUNT>
1

> <PUBCHEM_COMPOUND_CANONICALIZED>
1

> <PUBCHEM_COMPOUND_CID>
8232846

> <PUBCHEM_COORDINATE_TYPE>
1
5
255

> <PUBCHEM_EXACT_MASS>
310.168128

> <PUBCHEM_HEAVY_ATOM_COUNT>
23

> <PUBCHEM_ISOTOPIC_ATOM_COUNT>
0

> <PUBCHEM_IUPAC_CAS_NAME>
2-(2-methoxyphenyl)-N-[2-(1-pyrrolidinyl)phenyl]acetamide

> <PUBCHEM_IUPAC_INCHI>
InChI=1S/C19H22N2O2/c1-23-18-11-5-2-8-15(18)14-19(22)20-16-9-3-4-10-17(16)21-12-6-7-13-21/h2-5,8-11H,6-7,12-14H2,1H3,(H,20,22)

> <PUBCHEM_IUPAC_INCHIKEY>
BQHWWVGVCNKUTC-UHFFFAOYSA-N

> <PUBCHEM_IUPAC_NAME>
2-(2-methoxyphenyl)-N-(2-pyrrolidin-1-ylphenyl)acetamide

> <PUBCHEM_IUPAC_OPENEYE_NAME>
2-(2-methoxyphenyl)-N-(2-pyrrolidin-1-ylphenyl)acetamide

> <PUBCHEM_IUPAC_SYSTEMATIC_NAME>
2-(2-methoxyphenyl)-N-(2-pyrrolidin-1-ylphenyl)ethanamide

> <PUBCHEM_IUPAC_TRADITIONAL_NAME>
2-(2-methoxyphenyl)-N-(2-pyrrolidinophenyl)acetamide

> <PUBCHEM_MOLECULAR_FORMULA>
C19H22N2O2

> <PUBCHEM_MOLECULAR_WEIGHT>
310.39018

> <PUBCHEM_MONOISOTOPIC_WEIGHT>
310.168128

> <PUBCHEM_OPENEYE_CAN_SMILES>
COC1=CC=CC=C1CC(=O)NC2=CC=CC=C2N3CCCC3

> <PUBCHEM_OPENEYE_ISO_SMILES>
COC1=CC=CC=C1CC(=O)NC2=CC=CC=C2N3CCCC3

> <PUBCHEM_TOTAL_CHARGE>
0

> <PUBCHEM_XLOGP3_AA>
3.3

$$$$
Largest isolated from Written by BCL::WriteToMDL,23723102
JMcorina  04211410293D 1   1.00000     0.00000 
CORINA 3.49 0026  01.06.2011
 51 52  0  0  0  0  0  0  0  0999 V2000
    6.8089   17.6246    7.0646 N   0  0  0  1  0  0  0  0  0  0  0  0
    8.0597   13.6078    9.6678 C   0  0  0  1  0  0  0  0  0  0  0  0
    8.1956   12.0850    9.6089 C   0  0  0  1  0  0  0  0  0  0  0  0
    7.4547   14.1168    8.3580 C   0  0  0  1  0  0  0  0  0  0  0  0
    9.1069   11.6989    8.4422 C   0  0  0  1  0  0  0  0  0  0  0  0
    7.4339   15.6467    8.3664 C   0  0  0  1  0  0  0  0  0  0  0  0
    8.7916   11.5836   10.8991 C   0  0  0  1  0  0  0  0  0  0  0  0
    7.1484   13.9938   10.8346 C   0  0  0  1  0  0  0  0  0  0  0  0
    6.8288   16.1557    7.0566 C   0  0  0  1  0  0  0  0  0  0  0  0
    9.1429   10.1983    8.3081 C   0  0  0  1  0  0  0  0  0  0  0  0
    8.0865   10.6918   11.6856 C   0  0  0  1  0  0  0  0  0  0  0  0
   10.0457   12.0110   11.2932 C   0  0  0  1  0  0  0  0  0  0  0  0
    8.2238    9.5543    7.5011 C   0  0  0  1  0  0  0  0  0  0  0  0
   10.0987    9.4664    8.9876 C   0  0  0  1  0  0  0  0  0  0  0  0
    8.6332   10.2319   12.8690 C   0  0  0  1  0  0  0  0  0  0  0  0
   10.5924   11.5511   12.4766 C   0  0  0  1  0  0  0  0  0  0  0  0
    9.8851   10.6634   13.2658 C   0  0  0  1  0  0  0  0  0  0  0  0
    8.1730   18.1696    7.0545 C   0  0  0  1  0  0  0  0  0  0  0  0
    6.0250   18.1466    5.9373 C   0  0  0  1  0  0  0  0  0  0  0  0
    8.2568    8.1778    7.3781 C   0  0  0  1  0  0  0  0  0  0  0  0
   10.1317    8.0899    8.8646 C   0  0  0  1  0  0  0  0  0  0  0  0
    9.2092    7.4454    8.0617 C   0  0  0  1  0  0  0  0  0  0  0  0
    9.0433   14.0550    9.8117 H   0  0  0  1  0  0  0  0  0  0  0  0
    7.2120   11.6377    9.4651 H   0  0  0  1  0  0  0  0  0  0  0  0
    8.0563   13.7662    7.5194 H   0  0  0  1  0  0  0  0  0  0  0  0
    6.4368   13.7402    8.2574 H   0  0  0  1  0  0  0  0  0  0  0  0
    8.7229   12.1369    7.5209 H   0  0  0  1  0  0  0  0  0  0  0  0
   10.1141   12.0712    8.6293 H   0  0  0  1  0  0  0  0  0  0  0  0
    6.8323   15.9973    9.2050 H   0  0  0  1  0  0  0  0  0  0  0  0
    8.4518   16.0233    8.4669 H   0  0  0  1  0  0  0  0  0  0  0  0
    7.5795   13.6311   11.7677 H   0  0  0  1  0  0  0  0  0  0  0  0
    7.0516   15.0787   10.8765 H   0  0  0  1  0  0  0  0  0  0  0  0
    6.1648   13.5466   10.6907 H   0  0  0  1  0  0  0  0  0  0  0  0
    5.8109   15.7791    6.9560 H   0  0  0  1  0  0  0  0  0  0  0  0
    7.4305   15.8051    6.2180 H   0  0  0  1  0  0  0  0  0  0  0  0
    7.1084   10.3547   11.3756 H   0  0  0  1  0  0  0  0  0  0  0  0
   10.5985   12.7040   10.6764 H   0  0  0  1  0  0  0  0  0  0  0  0
    7.4796   10.1265    6.9670 H   0  0  0  1  0  0  0  0  0  0  0  0
   10.8198    9.9700    9.6143 H   0  0  0  1  0  0  0  0  0  0  0  0
    8.0820    9.5357   13.4838 H   0  0  0  1  0  0  0  0  0  0  0  0
   11.5723   11.8848   12.7844 H   0  0  0  1  0  0  0  0  0  0  0  0
   10.3120   10.3044   14.1905 H   0  0  0  1  0  0  0  0  0  0  0  0
    5.0000   17.7828    6.0081 H   0  0  0  1  0  0  0  0  0  0  0  0
    6.0267   19.2362    5.9672 H   0  0  0  1  0  0  0  0  0  0  0  0
    6.4668   17.8082    5.0000 H   0  0  0  1  0  0  0  0  0  0  0  0
    8.6925   17.8321    6.1577 H   0  0  0  1  0  0  0  0  0  0  0  0
    8.1292   19.2587    7.0608 H   0  0  0  1  0  0  0  0  0  0  0  0
    8.7095   17.8225    7.9376 H   0  0  0  1  0  0  0  0  0  0  0  0
    7.5382    7.6746    6.7481 H   0  0  0  1  0  0  0  0  0  0  0  0
   10.8786    7.5181    9.3952 H   0  0  0  1  0  0  0  0  0  0  0  0
    9.2348    6.3700    7.9659 H   0  0  0  1  0  0  0  0  0  0  0  0
  1  9  1  0  0  0  0
  1 18  1  0  0  0  0
  1 19  1  0  0  0  0
  2  3  1  0  0  0  0
  2  4  1  0  0  0  0
  2  8  1  0  0  0  0
  2 23  1  0  0  0  0
  3  5  1  0  0  0  0
  3  7  1  0  0  0  0
  3 24  1  0  0  0  0
  4  6  1  0  0  0  0
  4 25  1  0  0  0  0
  4 26  1  0  0  0  0
  5 10  1  0  0  0  0
  5 27  1  0  0  0  0
  5 28  1  0  0  0  0
  6  9  1  0  0  0  0
  6 29  1  0  0  0  0
  6 30  1  0  0  0  0
  7 11  4  0  0  0  0
  7 12  4  0  0  0  0
  8 31  1  0  0  0  0
  8 32  1  0  0  0  0
  8 33  1  0  0  0  0
  9 34  1  0  0  0  0
  9 35  1  0  0  0  0
 10 13  4  0  0  0  0
 10 14  4  0  0  0  0
 11 15  4  0  0  0  0
 11 36  1  0  0  0  0
 12 16  4  0  0  0  0
 12 37  1  0  0  0  0
 13 20  4  0  0  0  0
 13 38  1  0  0  0  0
 14 21  4  0  0  0  0
 14 39  1  0  0  0  0
 15 17  4  0  0  0  0
 15 40  1  0  0  0  0
 16 17  4  0  0  0  0
 16 41  1  0  0  0  0
 17 42  1  0  0  0  0
 18 46  1  0  0  0  0
 18 47  1  0  0  0  0
 18 48  1  0  0  0  0
 19 43  1  0  0  0  0
 19 44  1  0  0  0  0
 19 45  1  0  0  0  0
 20 22  4  0  0  0  0
 20 49  1  0  0  0  0
 21 22  4  0  0  0  0
 21 50  1  0  0  0  0
 22 51  1  0  0  0  0
M  END
> <Activity>
0.01

> <Mapped(file=2032.csv.activities,property=Cached(PUBCHEM_COMPOUND_CID))>
100

> <MatchIndices>
213 

> <PUBCHEM_ATOM_DEF_STEREO_COUNT>
0

> <PUBCHEM_ATOM_UDEF_STEREO_COUNT>
2

> <PUBCHEM_BONDANNOTATIONS>
11  14  8
11  15  8
12  16  8
13  17  8
14  21  8
15  22  8
16  18  8
17  18  8
21  23  8
22  23  8
3  9  3
4  6  3
8  12  8
8  13  8

> <PUBCHEM_BOND_DEF_STEREO_COUNT>
0

> <PUBCHEM_BOND_UDEF_STEREO_COUNT>
0

> <PUBCHEM_CACTVS_COMPLEXITY>
274

> <PUBCHEM_CACTVS_HBOND_ACCEPTOR>
1

> <PUBCHEM_CACTVS_HBOND_DONOR>
1

> <PUBCHEM_CACTVS_ROTATABLE_BOND>
8

> <PUBCHEM_CACTVS_SUBSKEYS>
AAADceB6AAAEAAAAAAAAAAAAAAAAAAAAAAAwYAAAAAAAAAABQAAAHAAAAAAADQDBGAQyAIMAAACAAiBCAAACAAAgAAAIiAAIAIgIICKAkRCEIAAggAAIiAcQgMAOgAAAAAAAAAAAAAAAAAAAAAAAAAAAAA==

> <PUBCHEM_CACTVS_TAUTO_COUNT>
1

> <PUBCHEM_CACTVS_TPSA>
3.2

> <PUBCHEM_COMPONENT_COUNT>
2

> <PUBCHEM_COMPOUND_CANONICALIZED>
1

> <PUBCHEM_COMPOUND_CID>
23723102

> <PUBCHEM_COORDINATE_TYPE>
1
5
255

> <PUBCHEM_EXACT_MASS>
331.206678

> <PUBCHEM_HEAVY_ATOM_COUNT>
23

> <PUBCHEM_ISOTOPIC_ATOM_COUNT>
0

> <PUBCHEM_IUPAC_CAS_NAME>
N,N,4-trimethyl-5,6-diphenyl-1-hexanamine hydrochloride

> <PUBCHEM_IUPAC_INCHI>
InChI=1S/C21H29N.ClH/c1-18(11-10-16-22(2)3)21(20-14-8-5-9-15-20)17-19-12-6-4-7-13-19;/h4-9,12-15,18,21H,10-11,16-17H2,1-3H3;1H

> <PUBCHEM_IUPAC_INCHIKEY>
XGEHRILRSDLQPN-UHFFFAOYSA-N

> <PUBCHEM_IUPAC_NAME>
N,N,4-trimethyl-5,6-diphenylhexan-1-amine hydrochloride

> <PUBCHEM_IUPAC_OPENEYE_NAME>
N,N,4-trimethyl-5,6-diphenyl-hexan-1-amine hydrochloride

> <PUBCHEM_IUPAC_SYSTEMATIC_NAME>
N,N,4-trimethyl-5,6-diphenyl-hexan-1-amine hydrochloride

> <PUBCHEM_IUPAC_TRADITIONAL_NAME>
dimethyl-(4-methyl-5,6-diphenyl-hexyl)amine hydrochloride

> <PUBCHEM_MOLECULAR_FORMULA>
C21H30ClN

> <PUBCHEM_MOLECULAR_WEIGHT>
331.9226

> <PUBCHEM_MONOISOTOPIC_WEIGHT>
331.206678

> <PUBCHEM_OPENEYE_CAN_SMILES>
CC(CCCN(C)C)C(CC1=CC=CC=C1)C2=CC=CC=C2.Cl

> <PUBCHEM_OPENEYE_ISO_SMILES>
CC(CCCN(C)C)C(CC1=CC=CC=C1)C2=CC=CC=C2.Cl

> <PUBCHEM_TOTAL_CHARGE>
0

$$$$
Largest isolated from Written by BCL::WriteToMDL,2045841
JMcorina  04211410293D 1   1.00000     0.00000 
CORINA 3.49 0026  01.06.2011
 46 48  0  0  0  0  0  0  0  0999 V2000
   -0.0218    1.7577    0.0117 S   0  0  0  1  0  0  0  0  0  0  0  0
   -1.6486   -3.7681   -1.3660 O   0  0  0  1  0  0  0  0  0  0  0  0
   -1.0846   -0.8308    0.0080 N   0  0  0  1  0  0  0  0  0  0  0  0
    0.7170   -2.0066   -0.0199 N   0  0  0  1  0  0  0  0  0  0  0  0
    1.0681   -0.7702   -0.0127 N   0  0  0  1  0  0  0  0  0  0  0  0
    2.7912    8.8619    0.0230 N   0  0  0  1  0  0  0  0  0  0  0  0
   -2.4956   -0.4370    0.0240 C   0  0  0  1  0  0  0  0  0  0  0  0
   -0.5824   -2.1027   -0.0102 C   0  0  0  1  0  0  0  0  0  0  0  0
    0.0021   -0.0041    0.0020 C   0  0  0  1  0  0  0  0  0  0  0  0
   -1.3835   -3.3791   -0.0168 C   0  0  0  1  0  0  0  0  0  0  0  0
   -2.9748   -0.3157    1.4719 C   0  0  0  1  0  0  0  0  0  0  0  0
    1.7562    2.0963   -0.0035 C   0  0  0  1  0  0  0  0  0  0  0  0
    1.9840    3.5860    0.0024 C   0  0  0  1  0  0  0  0  0  0  0  0
   -2.3664   -4.9073   -1.5499 C   0  0  0  1  0  0  0  0  0  0  0  0
    2.0995    4.2602    1.2051 C   0  0  0  1  0  0  0  0  0  0  0  0
    2.0823    4.2722   -1.1950 C   0  0  0  1  0  0  0  0  0  0  0  0
   -2.6603   -5.3438   -2.8336 C   0  0  0  1  0  0  0  0  0  0  0  0
   -2.8017   -5.6389   -0.4544 C   0  0  0  1  0  0  0  0  0  0  0  0
   -3.8277   -7.2263   -1.9244 C   0  0  0  1  0  0  0  0  0  0  0  0
   -3.3902   -6.5021   -3.0179 C   0  0  0  1  0  0  0  0  0  0  0  0
   -3.5312   -6.7965   -0.6441 C   0  0  0  1  0  0  0  0  0  0  0  0
    2.3081    5.6238    1.2177 C   0  0  0  1  0  0  0  0  0  0  0  0
    2.2912    5.6358   -1.1970 C   0  0  0  1  0  0  0  0  0  0  0  0
    2.4030    6.3234    0.0131 C   0  0  0  1  0  0  0  0  0  0  0  0
   -4.6237   -8.4896   -2.1284 C   0  0  0  1  0  0  0  0  0  0  0  0
    2.6195    7.7390    0.0186 C   0  0  0  1  0  0  0  0  0  0  0  0
   -2.6104    0.5235   -0.4784 H   0  0  0  1  0  0  0  0  0  0  0  0
   -3.0891   -1.1909   -0.4932 H   0  0  0  1  0  0  0  0  0  0  0  0
   -2.3259   -3.2194    0.5072 H   0  0  0  1  0  0  0  0  0  0  0  0
   -0.8183   -4.1654    0.4837 H   0  0  0  1  0  0  0  0  0  0  0  0
   -2.8599   -1.2762    1.9743 H   0  0  0  1  0  0  0  0  0  0  0  0
   -2.3813    0.4382    1.9891 H   0  0  0  1  0  0  0  0  0  0  0  0
   -4.0246   -0.0227    1.4838 H   0  0  0  1  0  0  0  0  0  0  0  0
    2.2177    1.6547    0.8798 H   0  0  0  1  0  0  0  0  0  0  0  0
    2.2007    1.6643   -0.9001 H   0  0  0  1  0  0  0  0  0  0  0  0
    2.0259    3.7178    2.1360 H   0  0  0  1  0  0  0  0  0  0  0  0
    1.9956    3.7391   -2.1303 H   0  0  0  1  0  0  0  0  0  0  0  0
   -2.3192   -4.7782   -3.6881 H   0  0  0  1  0  0  0  0  0  0  0  0
   -2.5700   -5.3038    0.5458 H   0  0  0  1  0  0  0  0  0  0  0  0
   -3.6196   -6.8421   -4.0170 H   0  0  0  1  0  0  0  0  0  0  0  0
   -3.8702   -7.3664    0.2084 H   0  0  0  1  0  0  0  0  0  0  0  0
    2.3974    6.1490    2.1572 H   0  0  0  1  0  0  0  0  0  0  0  0
    2.3678    6.1702   -2.1324 H   0  0  0  1  0  0  0  0  0  0  0  0
   -3.9452   -9.3404   -2.1911 H   0  0  0  1  0  0  0  0  0  0  0  0
   -5.3050   -8.6293   -1.2890 H   0  0  0  1  0  0  0  0  0  0  0  0
   -5.1966   -8.4128   -3.0525 H   0  0  0  1  0  0  0  0  0  0  0  0
  1  9  1  0  0  0  0
  1 12  1  0  0  0  0
  2 10  1  0  0  0  0
  2 14  1  0  0  0  0
  3  7  1  0  0  0  0
  3  8  4  0  0  0  0
  3  9  4  0  0  0  0
  4  5  4  0  0  0  0
  4  8  4  0  0  0  0
  5  9  4  0  0  0  0
  6 26  3  0  0  0  0
  7 11  1  0  0  0  0
  7 27  1  0  0  0  0
  7 28  1  0  0  0  0
  8 10  1  0  0  0  0
 10 29  1  0  0  0  0
 10 30  1  0  0  0  0
 11 31  1  0  0  0  0
 11 32  1  0  0  0  0
 11 33  1  0  0  0  0
 12 13  1  0  0  0  0
 12 34  1  0  0  0  0
 12 35  1  0  0  0  0
 13 15  4  0  0  0  0
 13 16  4  0  0  0  0
 14 17  4  0  0  0  0
 14 18  4  0  0  0  0
 15 22  4  0  0  0  0
 15 36  1  0  0  0  0
 16 23  4  0  0  0  0
 16 37  1  0  0  0  0
 17 20  4  0  0  0  0
 17 38  1  0  0  0  0
 18 21  4  0  0  0  0
 18 39  1  0  0  0  0
 19 20  4  0  0  0  0
 19 21  4  0  0  0  0
 19 25  1  0  0  0  0
 20 40  1  0  0  0  0
 21 41  1  0  0  0  0
 22 24  4  0  0  0  0
 22 42  1  0  0  0  0
 23 24  4  0  0  0  0
 23 43  1  0  0  0  0
 24 26  1  0  0  0  0
 25 44  1  0  0  0  0
 25 45  1  0  0  0  0
 25 46  1  0  0  0  0
M  END
> <Activity>
0.01

> <Mapped(file=2032.csv.activities,property=Cached(PUBCHEM_COMPOUND_CID))>
100

> <MatchIndices>
201 

> <PUBCHEM_ATOM_DEF_STEREO_COUNT>
0

> <PUBCHEM_ATOM_UDEF_STEREO_COUNT>
0

> <PUBCHEM_BONDANNOTATIONS>
13  15  8
13  16  8
14  17  8
14  18  8
15  22  8
16  23  8
17  20  8
18  21  8
19  20  8
19  21  8
22  24  8
23  24  8
3  8  8
3  9  8
4  5  8
4  8  8
5  9  8

> <PUBCHEM_BOND_DEF_STEREO_COUNT>
0

> <PUBCHEM_BOND_UDEF_STEREO_COUNT>
0

> <PUBCHEM_CACTVS_COMPLEXITY>
466

> <PUBCHEM_CACTVS_HBOND_ACCEPTOR>
3

> <PUBCHEM_CACTVS_HBOND_DONOR>
0

> <PUBCHEM_CACTVS_ROTATABLE_BOND>
7

> <PUBCHEM_CACTVS_SUBSKEYS>
AAADceB7oABAAAAAAAAAAAAAAAAAAWAAAAAwYAAAAAAAAAAB0AAAHgQIAAAADATl2wazFocMFAiyBiJiJAQy2AtgILAdyAAeCIiOriKkORqDOCCkyBOYqA+AwAAOYAAAAAAAAADAAAAAAAAAAAAAAAAAAA==

> <PUBCHEM_CACTVS_TAUTO_COUNT>
1

> <PUBCHEM_CACTVS_TPSA>
89

> <PUBCHEM_COMPONENT_COUNT>
1

> <PUBCHEM_COMPOUND_CANONICALIZED>
1

> <PUBCHEM_COMPOUND_CID>
2045841

> <PUBCHEM_COORDINATE_TYPE>
1
5
255

> <PUBCHEM_EXACT_MASS>
364.135782

> <PUBCHEM_HEAVY_ATOM_COUNT>
26

> <PUBCHEM_ISOTOPIC_ATOM_COUNT>
0

> <PUBCHEM_IUPAC_CAS_NAME>
4-[[[4-ethyl-5-[(4-methylphenoxy)methyl]-1,2,4-triazol-3-yl]thio]methyl]benzonitrile

> <PUBCHEM_IUPAC_INCHI>
InChI=1S/C20H20N4OS/c1-3-24-19(13-25-18-10-4-15(2)5-11-18)22-23-20(24)26-14-17-8-6-16(12-21)7-9-17/h4-11H,3,13-14H2,1-2H3

> <PUBCHEM_IUPAC_INCHIKEY>
SZAKWCMAJDDKGG-UHFFFAOYSA-N

> <PUBCHEM_IUPAC_NAME>
4-[[4-ethyl-5-[(4-methylphenoxy)methyl]-1,2,4-triazol-3-yl]sulfanylmethyl]benzonitrile

> <PUBCHEM_IUPAC_OPENEYE_NAME>
4-[[4-ethyl-5-[(4-methylphenoxy)methyl]-1,2,4-triazol-3-yl]sulfanylmethyl]benzonitrile

> <PUBCHEM_IUPAC_SYSTEMATIC_NAME>
4-[[4-ethyl-5-[(4-methylphenoxy)methyl]-1,2,4-triazol-3-yl]sulfanylmethyl]benzenecarbonitrile

> <PUBCHEM_IUPAC_TRADITIONAL_NAME>
4-[[[4-ethyl-5-[(4-methylphenoxy)methyl]-1,2,4-triazol-3-yl]thio]methyl]benzonitrile

> <PUBCHEM_MOLECULAR_FORMULA>
C20H20N4OS

> <PUBCHEM_MOLECULAR_WEIGHT>
364.464

> <PUBCHEM_MONOISOTOPIC_WEIGHT>
364.135782

> <PUBCHEM_OPENEYE_CAN_SMILES>
CCN1C(=NN=C1SCC2=CC=C(C=C2)C#N)COC3=CC=C(C=C3)C

> <PUBCHEM_OPENEYE_ISO_SMILES>
CCN1C(=NN=C1SCC2=CC=C(C=C2)C#N)COC3=CC=C(C=C3)C

> <PUBCHEM_TOTAL_CHARGE>
0

> <PUBCHEM_XLOGP3_AA>
3.6

$$$$
Largest isolated from Written by BCL::WriteToMDL,24746835
JMcorina  04211410293D 1   1.00000     0.00000 
CORINA 3.49 0026  01.06.2011
 40 42  0  0  0  0  0  0  0  0999 V2000
    8.0029   14.5706    7.1562 N   0  0  0  1  0  0  0  0  0  0  0  0
    6.5706    8.9584    6.4533 N   0  0  0  1  0  0  0  0  0  0  0  0
    6.5874   12.5722    7.1590 C   0  0  0  1  0  0  0  0  0  0  0  0
    6.6078   11.0653    7.1507 C   0  0  0  1  0  0  0  0  0  0  0  0
    6.7335   10.1891    8.3180 C   0  0  0  1  0  0  0  0  0  0  0  0
    8.0228   13.1017    7.1482 C   0  0  0  1  0  0  0  0  0  0  0  0
    6.7043    8.8731    7.8210 C   0  0  0  1  0  0  0  0  0  0  0  0
    6.5148   10.2714    6.0723 C   0  0  0  1  0  0  0  0  0  0  0  0
    9.3670   15.1156    7.1461 C   0  0  0  1  0  0  0  0  0  0  0  0
    6.8627   10.4129    9.6898 C   0  0  0  1  0  0  0  0  0  0  0  0
    9.3063   16.6214    7.1548 C   0  0  0  1  0  0  0  0  0  0  0  0
    6.8060    7.8072    8.7087 C   0  0  0  1  0  0  0  0  0  0  0  0
    6.9611    9.3508   10.5441 C   0  0  0  1  0  0  0  0  0  0  0  0
    6.9336    8.0508   10.0588 C   0  0  0  1  0  0  0  0  0  0  0  0
    9.2900   17.3057    8.3560 C   0  0  0  1  0  0  0  0  0  0  0  0
    9.2728   17.3185    5.9618 C   0  0  0  1  0  0  0  0  0  0  0  0
    9.2343   18.6867    8.3640 C   0  0  0  1  0  0  0  0  0  0  0  0
    9.2172   18.6999    5.9698 C   0  0  0  1  0  0  0  0  0  0  0  0
    9.1955   19.3838    7.1707 C   0  0  0  1  0  0  0  0  0  0  0  0
    9.2154   19.4325    9.6734 C   0  0  0  1  0  0  0  0  0  0  0  0
    6.0602   12.9332    6.2760 H   0  0  0  1  0  0  0  0  0  0  0  0
    6.0772   12.9237    8.0558 H   0  0  0  1  0  0  0  0  0  0  0  0
    8.5330   12.7502    6.2514 H   0  0  0  1  0  0  0  0  0  0  0  0
    8.5500   12.7407    8.0312 H   0  0  0  1  0  0  0  0  0  0  0  0
    6.4113   10.6178    5.0546 H   0  0  0  1  0  0  0  0  0  0  0  0
    7.4644   14.9292    6.3819 H   0  0  0  1  0  0  0  0  0  0  0  0
    6.5268    8.2006    5.8493 H   0  0  0  1  0  0  0  0  0  0  0  0
    9.9035   14.7685    8.0292 H   0  0  0  1  0  0  0  0  0  0  0  0
    9.8865   14.7781    6.2493 H   0  0  0  1  0  0  0  0  0  0  0  0
    6.8858   11.4218   10.0745 H   0  0  0  1  0  0  0  0  0  0  0  0
    6.7846    6.7919    8.3409 H   0  0  0  1  0  0  0  0  0  0  0  0
    7.0610    9.5244   11.6054 H   0  0  0  1  0  0  0  0  0  0  0  0
    7.0121    7.2217   10.7465 H   0  0  0  1  0  0  0  0  0  0  0  0
    9.3203   16.7611    9.2882 H   0  0  0  1  0  0  0  0  0  0  0  0
    9.2904   16.7842    5.0234 H   0  0  0  1  0  0  0  0  0  0  0  0
    9.1913   19.2447    5.0376 H   0  0  0  1  0  0  0  0  0  0  0  0
    9.1516   20.4629    7.1769 H   0  0  0  1  0  0  0  0  0  0  0  0
   10.2377   19.6537    9.9802 H   0  0  0  1  0  0  0  0  0  0  0  0
    8.6626   20.3641    9.5529 H   0  0  0  1  0  0  0  0  0  0  0  0
    8.7325   18.8191   10.4340 H   0  0  0  1  0  0  0  0  0  0  0  0
  1  6  1  0  0  0  0
  1  9  1  0  0  0  0
  1 26  1  0  0  0  0
  2  7  4  0  0  0  0
  2  8  4  0  0  0  0
  2 27  1  0  0  0  0
  3  4  1  0  0  0  0
  3  6  1  0  0  0  0
  3 21  1  0  0  0  0
  3 22  1  0  0  0  0
  4  5  4  0  0  0  0
  4  8  4  0  0  0  0
  5  7  4  0  0  0  0
  5 10  4  0  0  0  0
  6 23  1  0  0  0  0
  6 24  1  0  0  0  0
  7 12  4  0  0  0  0
  8 25  1  0  0  0  0
  9 11  1  0  0  0  0
  9 28  1  0  0  0  0
  9 29  1  0  0  0  0
 10 13  4  0  0  0  0
 10 30  1  0  0  0  0
 11 15  4  0  0  0  0
 11 16  4  0  0  0  0
 12 14  4  0  0  0  0
 12 31  1  0  0  0  0
 13 14  4  0  0  0  0
 13 32  1  0  0  0  0
 14 33  1  0  0  0  0
 15 17  4  0  0  0  0
 15 34  1  0  0  0  0
 16 18  4  0  0  0  0
 16 35  1  0  0  0  0
 17 19  4  0  0  0  0
 17 20  1  0  0  0  0
 18 19  4  0  0  0  0
 18 36  1  0  0  0  0
 19 37  1  0  0  0  0
 20 38  1  0  0  0  0
 20 39  1  0  0  0  0
 20 40  1  0  0  0  0
M  END
> <Activity>
0.01

> <Mapped(file=2032.csv.activities,property=Cached(PUBCHEM_COMPOUND_CID))>
100

> <MatchIndices>
15 

> <PUBCHEM_ATOM_DEF_STEREO_COUNT>
0

> <PUBCHEM_ATOM_UDEF_STEREO_COUNT>
0

> <PUBCHEM_BONDANNOTATIONS>
11  16  8
14  17  8
15  19  8
15  20  8
16  18  8
17  18  8
19  21  8
20  22  8
21  23  8
22  23  8
6  11  8
6  12  8
8  12  8
8  9  8
9  11  8
9  14  8

> <PUBCHEM_BOND_DEF_STEREO_COUNT>
0

> <PUBCHEM_BOND_UDEF_STEREO_COUNT>
0

> <PUBCHEM_CACTVS_COMPLEXITY>
363

> <PUBCHEM_CACTVS_HBOND_ACCEPTOR>
5

> <PUBCHEM_CACTVS_HBOND_DONOR>
4

> <PUBCHEM_CACTVS_ROTATABLE_BOND>
6

> <PUBCHEM_CACTVS_SUBSKEYS>
AAADceB7OAAAAAAAAAAAAAAAAAAAAWAAAAAwYAAAAAAAAFgB9AAAHgAQCAAADAjBngQ+yPLJkgCoAzT3TAKCgCAxAiAI2aB4ZJgJIOLAkZGEIAhgkADJyAcQgMAOgAACAAACAAAAAAQAAAQAAAAAAAAAAA==

> <PUBCHEM_CACTVS_TAUTO_COUNT>
1

> <PUBCHEM_CACTVS_TPSA>
102

> <PUBCHEM_COMPONENT_COUNT>
2

> <PUBCHEM_COMPOUND_CANONICALIZED>
1

> <PUBCHEM_COMPOUND_CID>
24746835

> <PUBCHEM_COORDINATE_TYPE>
1
5
255

> <PUBCHEM_EXACT_MASS>
354.157957

> <PUBCHEM_HEAVY_ATOM_COUNT>
26

> <PUBCHEM_ISOTOPIC_ATOM_COUNT>
0

> <PUBCHEM_IUPAC_CAS_NAME>
2-(1H-indol-3-yl)-N-[(3-methylphenyl)methyl]ethanamine; oxalic acid

> <PUBCHEM_IUPAC_INCHI>
InChI=1S/C18H20N2.C2H2O4/c1-14-5-4-6-15(11-14)12-19-10-9-16-13-20-18-8-3-2-7-17(16)18;3-1(4)2(5)6/h2-8,11,13,19-20H,9-10,12H2,1H3;(H,3,4)(H,5,6)

> <PUBCHEM_IUPAC_INCHIKEY>
FDMJALUNIGDJSZ-UHFFFAOYSA-N

> <PUBCHEM_IUPAC_NAME>
2-(1H-indol-3-yl)-N-[(3-methylphenyl)methyl]ethanamine; oxalic acid

> <PUBCHEM_IUPAC_OPENEYE_NAME>
2-(1H-indol-3-yl)-N-(m-tolylmethyl)ethanamine; oxalic acid

> <PUBCHEM_IUPAC_SYSTEMATIC_NAME>
ethanedioic acid; 2-(1H-indol-3-yl)-N-[(3-methylphenyl)methyl]ethanamine

> <PUBCHEM_IUPAC_TRADITIONAL_NAME>
2-(1H-indol-3-yl)ethyl-(3-methylbenzyl)amine; oxalic acid

> <PUBCHEM_MOLECULAR_FORMULA>
C20H22N2O4

> <PUBCHEM_MOLECULAR_WEIGHT>
354.39968

> <PUBCHEM_MONOISOTOPIC_WEIGHT>
354.157957

> <PUBCHEM_OPENEYE_CAN_SMILES>
CC1=CC(=CC=C1)CNCCC2=CNC3=CC=CC=C32.C(=O)(C(=O)O)O

> <PUBCHEM_OPENEYE_ISO_SMILES>
CC1=CC(=CC=C1)CNCCC2=CNC3=CC=CC=C32.C(=O)(C(=O)O)O

> <PUBCHEM_TOTAL_CHARGE>
0

$$$$
Largest isolated from Written by BCL::WriteToMDL,24240380
JMcorina  04211410293D 1   1.00000     0.00000 
CORINA 3.49 0026  01.06.2011
 48 49  0  0  0  0  0  0  0  0999 V2000
   -2.7175    2.8947    5.4642 Cl  0  0  0  1  0  0  0  0  0  0  0  0
   -0.0172    1.4168    0.0098 S   0  0  0  1  0  0  0  0  0  0  0  0
    0.0021   -0.0041    0.0020 O   0  0  0  1  0  0  0  0  0  0  0  0
    1.1903    2.1659    0.0023 O   0  0  0  1  0  0  0  0  0  0  0  0
   -1.5372    2.2496   -3.6594 N   0  0  0  1  0  0  0  0  0  0  0  0
   -1.0359    1.9753   -5.0127 C   0  0  0  1  0  0  0  0  0  0  0  0
   -0.6088    1.7411   -2.6409 C   0  0  0  1  0  0  0  0  0  0  0  0
   -2.1933    1.9246   -5.9765 C   0  0  0  1  0  0  0  0  0  0  0  0
   -1.1637    2.0448   -1.2478 C   0  0  0  1  0  0  0  0  0  0  0  0
   -5.4743    1.7808   -8.7082 C   0  0  0  1  0  0  0  0  0  0  0  0
   -4.3168    1.8315   -7.7444 C   0  0  0  1  0  0  0  0  0  0  0  0
   -0.0701    3.0849   -5.4335 C   0  0  0  1  0  0  0  0  0  0  0  0
   -2.2154    0.9751   -6.9808 C   0  0  0  1  0  0  0  0  0  0  0  0
   -3.2357    2.8241   -5.8528 C   0  0  0  1  0  0  0  0  0  0  0  0
   -3.2770    0.9286   -7.8649 C   0  0  0  1  0  0  0  0  0  0  0  0
   -4.2974    2.7777   -6.7368 C   0  0  0  1  0  0  0  0  0  0  0  0
   -0.7770    1.8326    1.5442 C   0  0  0  1  0  0  0  0  0  0  0  0
   -6.7709    1.5311   -7.9354 C   0  0  0  1  0  0  0  0  0  0  0  0
   -5.5743    3.1121   -9.4555 C   0  0  0  1  0  0  0  0  0  0  0  0
   -1.6500    0.9454    2.1458 C   0  0  0  1  0  0  0  0  0  0  0  0
   -0.4954    3.0435    2.1489 C   0  0  0  1  0  0  0  0  0  0  0  0
   -2.2463    1.2711    3.3494 C   0  0  0  1  0  0  0  0  0  0  0  0
   -1.0904    3.3698    3.3530 C   0  0  0  1  0  0  0  0  0  0  0  0
   -1.9690    2.4850    3.9524 C   0  0  0  1  0  0  0  0  0  0  0  0
   -0.5148    1.0180   -5.0200 H   0  0  0  1  0  0  0  0  0  0  0  0
   -0.4941    0.6636   -2.7594 H   0  0  0  1  0  0  0  0  0  0  0  0
    0.3608    2.2249   -2.7592 H   0  0  0  1  0  0  0  0  0  0  0  0
   -2.1333    1.5610   -1.1296 H   0  0  0  1  0  0  0  0  0  0  0  0
   -1.2784    3.1222   -1.1294 H   0  0  0  1  0  0  0  0  0  0  0  0
   -1.7104    3.2353   -3.5309 H   0  0  0  1  0  0  0  0  0  0  0  0
   -5.3164    0.9736   -9.4235 H   0  0  0  1  0  0  0  0  0  0  0  0
    0.7671    3.1215   -4.7364 H   0  0  0  1  0  0  0  0  0  0  0  0
    0.3019    2.8813   -6.4376 H   0  0  0  1  0  0  0  0  0  0  0  0
   -0.5912    4.0422   -5.4262 H   0  0  0  1  0  0  0  0  0  0  0  0
   -1.4030    0.2697   -7.0750 H   0  0  0  1  0  0  0  0  0  0  0  0
   -3.2207    3.5630   -5.0652 H   0  0  0  1  0  0  0  0  0  0  0  0
   -3.2923    0.1894   -8.6521 H   0  0  0  1  0  0  0  0  0  0  0  0
   -5.1097    3.4830   -6.6426 H   0  0  0  1  0  0  0  0  0  0  0  0
   -5.7321    3.9193   -8.7402 H   0  0  0  1  0  0  0  0  0  0  0  0
   -6.9288    2.3383   -7.2201 H   0  0  0  1  0  0  0  0  0  0  0  0
   -7.6080    1.4945   -8.6325 H   0  0  0  1  0  0  0  0  0  0  0  0
   -6.6997    0.5826   -7.4030 H   0  0  0  1  0  0  0  0  0  0  0  0
   -4.6505    3.2900  -10.0061 H   0  0  0  1  0  0  0  0  0  0  0  0
   -6.4114    3.0755  -10.1526 H   0  0  0  1  0  0  0  0  0  0  0  0
   -1.8664   -0.0021    1.6750 H   0  0  0  1  0  0  0  0  0  0  0  0
    0.1898    3.7344    1.6805 H   0  0  0  1  0  0  0  0  0  0  0  0
   -2.9289    0.5782    3.8189 H   0  0  0  1  0  0  0  0  0  0  0  0
   -0.8704    4.3158    3.8253 H   0  0  0  1  0  0  0  0  0  0  0  0
  1 24  1  0  0  0  0
  2  3  2  0  0  0  0
  2  4  2  0  0  0  0
  2  9  1  0  0  0  0
  2 17  1  0  0  0  0
  5  6  1  0  0  0  0
  5  7  1  0  0  0  0
  5 30  1  0  0  0  0
  6  8  1  0  0  0  0
  6 12  1  0  0  0  0
  6 25  1  0  0  0  0
  7  9  1  0  0  0  0
  7 26  1  0  0  0  0
  7 27  1  0  0  0  0
  8 13  4  0  0  0  0
  8 14  4  0  0  0  0
  9 28  1  0  0  0  0
  9 29  1  0  0  0  0
 10 11  1  0  0  0  0
 10 18  1  0  0  0  0
 10 19  1  0  0  0  0
 10 31  1  0  0  0  0
 11 15  4  0  0  0  0
 11 16  4  0  0  0  0
 12 32  1  0  0  0  0
 12 33  1  0  0  0  0
 12 34  1  0  0  0  0
 13 15  4  0  0  0  0
 13 35  1  0  0  0  0
 14 16  4  0  0  0  0
 14 36  1  0  0  0  0
 15 37  1  0  0  0  0
 16 38  1  0  0  0  0
 17 20  4  0  0  0  0
 17 21  4  0  0  0  0
 18 40  1  0  0  0  0
 18 41  1  0  0  0  0
 18 42  1  0  0  0  0
 19 39  1  0  0  0  0
 19 43  1  0  0  0  0
 19 44  1  0  0  0  0
 20 22  4  0  0  0  0
 20 45  1  0  0  0  0
 21 23  4  0  0  0  0
 21 46  1  0  0  0  0
 22 24  4  0  0  0  0
 22 47  1  0  0  0  0
 23 24  4  0  0  0  0
 23 48  1  0  0  0  0
M  END
> <Activity>
0.01

> <Mapped(file=2032.csv.activities,property=Cached(PUBCHEM_COMPOUND_CID))>
100

> <MatchIndices>
207 

> <PUBCHEM_ATOM_DEF_STEREO_COUNT>
0

> <PUBCHEM_ATOM_UDEF_STEREO_COUNT>
1

> <PUBCHEM_BONDANNOTATIONS>
11  15  8
11  16  8
13  15  8
14  16  8
17  20  8
17  21  8
20  22  8
21  23  8
22  24  8
23  24  8
6  12  3
8  13  8
8  14  8

> <PUBCHEM_BOND_DEF_STEREO_COUNT>
0

> <PUBCHEM_BOND_UDEF_STEREO_COUNT>
0

> <PUBCHEM_CACTVS_COMPLEXITY>
458

> <PUBCHEM_CACTVS_HBOND_ACCEPTOR>
3

> <PUBCHEM_CACTVS_HBOND_DONOR>
1

> <PUBCHEM_CACTVS_ROTATABLE_BOND>
7

> <PUBCHEM_CACTVS_SUBSKEYS>
AAADceB6MABEAAAAAAAAAAAAAAAAAAAAAAAwYAAAAAAAAAABQAAAHAYQAAAADSrFWCSyAYLAAAqAAiBCAHDCAAAgDRAIiJgIBogIICKhkxGEIAhgkACoiAcQgMAOwAIAAAAAAACABAAAAAAAAAAAAAAAAA==

> <PUBCHEM_CACTVS_TAUTO_COUNT>
1

> <PUBCHEM_CACTVS_TPSA>
54.6

> <PUBCHEM_COMPONENT_COUNT>
1

> <PUBCHEM_COMPOUND_CANONICALIZED>
1

> <PUBCHEM_COMPOUND_CID>
24240380

> <PUBCHEM_COORDINATE_TYPE>
1
5
255

> <PUBCHEM_EXACT_MASS>
365.121628

> <PUBCHEM_HEAVY_ATOM_COUNT>
24

> <PUBCHEM_ISOTOPIC_ATOM_COUNT>
0

> <PUBCHEM_IUPAC_CAS_NAME>
N-[2-(4-chlorophenyl)sulfonylethyl]-1-(4-propan-2-ylphenyl)ethanamine

> <PUBCHEM_IUPAC_INCHI>
InChI=1S/C19H24ClNO2S/c1-14(2)16-4-6-17(7-5-16)15(3)21-12-13-24(22,23)19-10-8-18(20)9-11-19/h4-11,14-15,21H,12-13H2,1-3H3

> <PUBCHEM_IUPAC_INCHIKEY>
ZBTGKYKDWWHYQJ-UHFFFAOYSA-N

> <PUBCHEM_IUPAC_NAME>
N-[2-(4-chlorophenyl)sulfonylethyl]-1-(4-propan-2-ylphenyl)ethanamine

> <PUBCHEM_IUPAC_OPENEYE_NAME>
N-[2-(4-chlorophenyl)sulfonylethyl]-1-(4-isopropylphenyl)ethanamine

> <PUBCHEM_IUPAC_SYSTEMATIC_NAME>
N-[2-(4-chlorophenyl)sulfonylethyl]-1-(4-propan-2-ylphenyl)ethanamine

> <PUBCHEM_IUPAC_TRADITIONAL_NAME>
2-(4-chlorophenyl)sulfonylethyl-(1-p-cumenylethyl)amine

> <PUBCHEM_MOLECULAR_FORMULA>
C19H24ClNO2S

> <PUBCHEM_MOLECULAR_WEIGHT>
365.91736

> <PUBCHEM_MONOISOTOPIC_WEIGHT>
365.121628

> <PUBCHEM_OPENEYE_CAN_SMILES>
CC(C)C1=CC=C(C=C1)C(C)NCCS(=O)(=O)C2=CC=C(C=C2)Cl

> <PUBCHEM_OPENEYE_ISO_SMILES>
CC(C)C1=CC=C(C=C1)C(C)NCCS(=O)(=O)C2=CC=C(C=C2)Cl

> <PUBCHEM_TOTAL_CHARGE>
0

> <PUBCHEM_XLOGP3_AA>
4.4

$$$$
Largest isolated from Written by BCL::WriteToMDL,2934374
JMcorina  04211410293D 1   1.00000     0.00000 
CORINA 3.49 0026  01.06.2011
 52 53  0  0  0  0  0  0  0  0999 V2000
   -0.0173    1.4248    0.0099 O   0  0  0  1  0  0  0  0  0  0  0  0
   -2.8280   -4.0619    0.0072 N   0  0  0  1  0  0  0  0  0  0  0  0
   -1.4126   -2.0635    0.0045 C   0  0  0  1  0  0  0  0  0  0  0  0
   -2.8479   -2.5931    0.0153 C   0  0  0  1  0  0  0  0  0  0  0  0
   -1.4333   -0.5336    0.0129 C   0  0  0  1  0  0  0  0  0  0  0  0
   -4.1690   -4.6080    0.2553 C   0  0  0  1  0  0  0  0  0  0  0  0
    0.0021   -0.0041    0.0020 C   0  0  0  1  0  0  0  0  0  0  0  0
   -2.2761   -4.5740   -1.2542 C   0  0  0  1  0  0  0  0  0  0  0  0
   -4.0718   -6.0944    0.4837 C   0  0  0  1  0  0  0  0  0  0  0  0
    1.1850    2.0582    0.0018 C   0  0  0  1  0  0  0  0  0  0  0  0
    1.7883    2.3885   -1.2030 C   0  0  0  1  0  0  0  0  0  0  0  0
    1.8086    2.3806    1.1984 C   0  0  0  1  0  0  0  0  0  0  0  0
    3.6326    3.3474   -0.0147 C   0  0  0  1  0  0  0  0  0  0  0  0
    3.0106    3.0322   -1.2086 C   0  0  0  1  0  0  0  0  0  0  0  0
    3.0308    3.0244    1.1875 C   0  0  0  1  0  0  0  0  0  0  0  0
   -3.8873   -6.5866    1.7622 C   0  0  0  1  0  0  0  0  0  0  0  0
   -4.1728   -6.9659   -0.5845 C   0  0  0  1  0  0  0  0  0  0  0  0
    1.1111    2.0448   -2.5047 C   0  0  0  1  0  0  0  0  0  0  0  0
    1.1529    2.0293    2.5090 C   0  0  0  1  0  0  0  0  0  0  0  0
   -3.7980   -7.9500    1.9718 C   0  0  0  1  0  0  0  0  0  0  0  0
   -4.0836   -8.3293   -0.3750 C   0  0  0  1  0  0  0  0  0  0  0  0
    4.9659    4.0498   -0.0236 C   0  0  0  1  0  0  0  0  0  0  0  0
   -3.8938   -8.8213    0.9029 C   0  0  0  1  0  0  0  0  0  0  0  0
   -0.8854   -2.4246    0.8875 H   0  0  0  1  0  0  0  0  0  0  0  0
   -0.9024   -2.4150   -0.8923 H   0  0  0  1  0  0  0  0  0  0  0  0
   -3.3751   -2.2320   -0.8677 H   0  0  0  1  0  0  0  0  0  0  0  0
   -3.3581   -2.2415    0.9121 H   0  0  0  1  0  0  0  0  0  0  0  0
   -1.9605   -0.1726   -0.8702 H   0  0  0  1  0  0  0  0  0  0  0  0
   -1.9435   -0.1821    0.9097 H   0  0  0  1  0  0  0  0  0  0  0  0
   -4.5977   -4.1321    1.1373 H   0  0  0  1  0  0  0  0  0  0  0  0
   -4.8057   -4.4139   -0.6079 H   0  0  0  1  0  0  0  0  0  0  0  0
    0.5123   -0.3556   -0.8948 H   0  0  0  1  0  0  0  0  0  0  0  0
    0.5293   -0.3651    0.8851 H   0  0  0  1  0  0  0  0  0  0  0  0
   -1.2563   -4.2099   -1.3789 H   0  0  0  1  0  0  0  0  0  0  0  0
   -2.2729   -5.6638   -1.2335 H   0  0  0  1  0  0  0  0  0  0  0  0
   -2.8896   -4.2282   -2.0861 H   0  0  0  1  0  0  0  0  0  0  0  0
    3.4808    3.2893   -2.1462 H   0  0  0  1  0  0  0  0  0  0  0  0
    3.5166    3.2757    2.1188 H   0  0  0  1  0  0  0  0  0  0  0  0
   -3.8125   -5.9058    2.5974 H   0  0  0  1  0  0  0  0  0  0  0  0
   -4.3217   -6.5816   -1.5828 H   0  0  0  1  0  0  0  0  0  0  0  0
    0.4686    2.8710   -2.8092 H   0  0  0  1  0  0  0  0  0  0  0  0
    1.8656    1.8694   -3.2716 H   0  0  0  1  0  0  0  0  0  0  0  0
    0.5092    1.1453   -2.3747 H   0  0  0  1  0  0  0  0  0  0  0  0
    1.4735    1.0352    2.8207 H   0  0  0  1  0  0  0  0  0  0  0  0
    1.4413    2.7582    3.2665 H   0  0  0  1  0  0  0  0  0  0  0  0
    0.0697    2.0405    2.3879 H   0  0  0  1  0  0  0  0  0  0  0  0
    4.8085    5.1283   -0.0163 H   0  0  0  1  0  0  0  0  0  0  0  0
    5.5353    3.7597    0.8594 H   0  0  0  1  0  0  0  0  0  0  0  0
    5.5183    3.7693   -0.9204 H   0  0  0  1  0  0  0  0  0  0  0  0
   -3.6532   -8.3345    2.9706 H   0  0  0  1  0  0  0  0  0  0  0  0
   -4.1628   -9.0103   -1.2095 H   0  0  0  1  0  0  0  0  0  0  0  0
   -3.8237   -9.8865    1.0665 H   0  0  0  1  0  0  0  0  0  0  0  0
  1  7  1  0  0  0  0
  1 10  1  0  0  0  0
  2  4  1  0  0  0  0
  2  6  1  0  0  0  0
  2  8  1  0  0  0  0
  3  4  1  0  0  0  0
  3  5  1  0  0  0  0
  3 24  1  0  0  0  0
  3 25  1  0  0  0  0
  4 26  1  0  0  0  0
  4 27  1  0  0  0  0
  5  7  1  0  0  0  0
  5 28  1  0  0  0  0
  5 29  1  0  0  0  0
  6  9  1  0  0  0  0
  6 30  1  0  0  0  0
  6 31  1  0  0  0  0
  7 32  1  0  0  0  0
  7 33  1  0  0  0  0
  8 34  1  0  0  0  0
  8 35  1  0  0  0  0
  8 36  1  0  0  0  0
  9 16  4  0  0  0  0
  9 17  4  0  0  0  0
 10 11  4  0  0  0  0
 10 12  4  0  0  0  0
 11 14  4  0  0  0  0
 11 18  1  0  0  0  0
 12 15  4  0  0  0  0
 12 19  1  0  0  0  0
 13 14  4  0  0  0  0
 13 15  4  0  0  0  0
 13 22  1  0  0  0  0
 14 37  1  0  0  0  0
 15 38  1  0  0  0  0
 16 20  4  0  0  0  0
 16 39  1  0  0  0  0
 17 21  4  0  0  0  0
 17 40  1  0  0  0  0
 18 41  1  0  0  0  0
 18 42  1  0  0  0  0
 18 43  1  0  0  0  0
 19 44  1  0  0  0  0
 19 45  1  0  0  0  0
 19 46  1  0  0  0  0
 20 23  4  0  0  0  0
 20 50  1  0  0  0  0
 21 23  4  0  0  0  0
 21 51  1  0  0  0  0
 22 47  1  0  0  0  0
 22 48  1  0  0  0  0
 22 49  1  0  0  0  0
 23 52  1  0  0  0  0
M  END
> <Activity>
0.01

> <Mapped(file=2032.csv.activities,property=Cached(PUBCHEM_COMPOUND_CID))>
100

> <MatchIndices>
101 

> <PUBCHEM_ATOM_DEF_STEREO_COUNT>
0

> <PUBCHEM_ATOM_UDEF_STEREO_COUNT>
0

> <PUBCHEM_BONDANNOTATIONS>
13  20  8
13  21  8
14  15  8
14  16  8
15  18  8
16  19  8
17  18  8
17  19  8
20  24  8
21  25  8
24  27  8
25  27  8

> <PUBCHEM_BOND_DEF_STEREO_COUNT>
0

> <PUBCHEM_BOND_UDEF_STEREO_COUNT>
0

> <PUBCHEM_CACTVS_COMPLEXITY>
373

> <PUBCHEM_CACTVS_HBOND_ACCEPTOR>
6

> <PUBCHEM_CACTVS_HBOND_DONOR>
2

> <PUBCHEM_CACTVS_ROTATABLE_BOND>
9

> <PUBCHEM_CACTVS_SUBSKEYS>
AAADceB6OAAAAAAAAAAAAAAAAAAAAAAAAAAwYAAAAAAAAAABQAAAHgAACAAADAThmAYyDoMABgCIAiDSCAKCCAAgIAAIiABMDIgNJiKEsRuGOCjkwBGJqAewwGAOIAACAAAIAABAAAQAABAAAAAAAAAAAA==

> <PUBCHEM_CACTVS_TAUTO_COUNT>
1

> <PUBCHEM_CACTVS_TPSA>
87.1

> <PUBCHEM_COMPONENT_COUNT>
2

> <PUBCHEM_COMPOUND_CANONICALIZED>
1

> <PUBCHEM_COMPOUND_CID>
2934374

> <PUBCHEM_COORDINATE_TYPE>
1
5
255

> <PUBCHEM_EXACT_MASS>
401.220223

> <PUBCHEM_HEAVY_ATOM_COUNT>
29

> <PUBCHEM_ISOTOPIC_ATOM_COUNT>
0

> <PUBCHEM_IUPAC_CAS_NAME>
N-methyl-N-(phenylmethyl)-4-(2,4,6-trimethylphenoxy)-1-butanamine; oxalic acid

> <PUBCHEM_IUPAC_INCHI>
InChI=1S/C21H29NO.C2H2O4/c1-17-14-18(2)21(19(3)15-17)23-13-9-8-12-22(4)16-20-10-6-5-7-11-20;3-1(4)2(5)6/h5-7,10-11,14-15H,8-9,12-13,16H2,1-4H3;(H,3,4)(H,5,6)

> <PUBCHEM_IUPAC_INCHIKEY>
NOQFLLUHURDPCM-UHFFFAOYSA-N

> <PUBCHEM_IUPAC_NAME>
N-benzyl-N-methyl-4-(2,4,6-trimethylphenoxy)butan-1-amine; oxalic acid

> <PUBCHEM_IUPAC_OPENEYE_NAME>
N-benzyl-N-methyl-4-(2,4,6-trimethylphenoxy)butan-1-amine; oxalic acid

> <PUBCHEM_IUPAC_SYSTEMATIC_NAME>
ethanedioic acid; N-methyl-N-(phenylmethyl)-4-(2,4,6-trimethylphenoxy)butan-1-amine

> <PUBCHEM_IUPAC_TRADITIONAL_NAME>
benzyl-methyl-[4-(2,4,6-trimethylphenoxy)butyl]amine; oxalic acid

> <PUBCHEM_MOLECULAR_FORMULA>
C23H31NO5

> <PUBCHEM_MOLECULAR_WEIGHT>
401.49594

> <PUBCHEM_MONOISOTOPIC_WEIGHT>
401.220223

> <PUBCHEM_OPENEYE_CAN_SMILES>
CC1=CC(=C(C(=C1)C)OCCCCN(C)CC2=CC=CC=C2)C.C(=O)(C(=O)O)O

> <PUBCHEM_OPENEYE_ISO_SMILES>
CC1=CC(=C(C(=C1)C)OCCCCN(C)CC2=CC=CC=C2)C.C(=O)(C(=O)O)O

> <PUBCHEM_TOTAL_CHARGE>
0

$$$$
Largest isolated from Written by BCL::WriteToMDL,24761107
JMcorina  04211410293D 1   1.00000     0.00000 
CORINA 3.49 0026  01.06.2011
 37 39  0  0  0  0  0  0  0  0999 V2000
   -4.0515   -7.6506   -4.7183 Br  0  0  0  1  0  0  0  0  0  0  0  0
   -0.0164    1.3608    0.0095 O   0  0  0  1  0  0  0  0  0  0  0  0
    2.0365    0.6682   -0.6514 O   0  0  0  1  0  0  0  0  0  0  0  0
   -6.4347   -5.7776   -5.0589 O   0  0  0  1  0  0  0  0  0  0  0  0
   -2.5230   -3.6299   -0.6443 N   0  0  0  1  0  0  0  0  0  0  0  0
   -1.7536   -3.3018    0.5634 C   0  0  0  1  0  0  0  0  0  0  0  0
   -0.6918   -2.2882    0.2226 C   0  0  0  1  0  0  0  0  0  0  0  0
   -3.5697   -4.6176   -0.3495 C   0  0  0  1  0  0  0  0  0  0  0  0
    0.0021   -0.0041    0.0020 C   0  0  0  1  0  0  0  0  0  0  0  0
   -0.9727   -0.9378    0.3143 C   0  0  0  1  0  0  0  0  0  0  0  0
    1.2643   -0.4299   -0.4043 C   0  0  0  1  0  0  0  0  0  0  0  0
   -4.3361   -4.9285   -1.6093 C   0  0  0  1  0  0  0  0  0  0  0  0
    0.5613   -2.7109   -0.1804 C   0  0  0  1  0  0  0  0  0  0  0  0
    1.5388   -1.7849   -0.4936 C   0  0  0  1  0  0  0  0  0  0  0  0
    1.3658    1.7641   -0.0015 C   0  0  0  1  0  0  0  0  0  0  0  0
   -3.9202   -5.9573   -2.4338 C   0  0  0  1  0  0  0  0  0  0  0  0
   -5.4573   -4.1878   -1.9356 C   0  0  0  1  0  0  0  0  0  0  0  0
   -4.6213   -6.2441   -3.5901 C   0  0  0  1  0  0  0  0  0  0  0  0
   -6.1621   -4.4708   -3.0895 C   0  0  0  1  0  0  0  0  0  0  0  0
   -5.7437   -5.4982   -3.9224 C   0  0  0  1  0  0  0  0  0  0  0  0
   -7.5795   -4.9689   -5.3374 C   0  0  0  1  0  0  0  0  0  0  0  0
   -2.4219   -2.8881    1.3187 H   0  0  0  1  0  0  0  0  0  0  0  0
   -1.2826   -4.2053    0.9507 H   0  0  0  1  0  0  0  0  0  0  0  0
   -3.1112   -5.5301    0.0314 H   0  0  0  1  0  0  0  0  0  0  0  0
   -4.2505   -4.2130    0.3994 H   0  0  0  1  0  0  0  0  0  0  0  0
   -2.9167   -2.7986   -1.0591 H   0  0  0  1  0  0  0  0  0  0  0  0
   -1.9525   -0.6104    0.6293 H   0  0  0  1  0  0  0  0  0  0  0  0
    0.7770   -3.7668   -0.2506 H   0  0  0  1  0  0  0  0  0  0  0  0
    2.5167   -2.1179   -0.8083 H   0  0  0  1  0  0  0  0  0  0  0  0
    1.4919    2.6835   -0.5731 H   0  0  0  1  0  0  0  0  0  0  0  0
    1.7360    1.8906    1.0159 H   0  0  0  1  0  0  0  0  0  0  0  0
   -3.0468   -6.5372   -2.1744 H   0  0  0  1  0  0  0  0  0  0  0  0
   -5.7825   -3.3875   -1.2875 H   0  0  0  1  0  0  0  0  0  0  0  0
   -7.0377   -3.8918   -3.3436 H   0  0  0  1  0  0  0  0  0  0  0  0
   -8.0376   -5.2967   -6.2706 H   0  0  0  1  0  0  0  0  0  0  0  0
   -8.2998   -5.0668   -4.5252 H   0  0  0  1  0  0  0  0  0  0  0  0
   -7.2745   -3.9265   -5.4289 H   0  0  0  1  0  0  0  0  0  0  0  0
  1 18  1  0  0  0  0
  2  9  1  0  0  0  0
  2 15  1  0  0  0  0
  3 11  1  0  0  0  0
  3 15  1  0  0  0  0
  4 20  1  0  0  0  0
  4 21  1  0  0  0  0
  5  6  1  0  0  0  0
  5  8  1  0  0  0  0
  5 26  1  0  0  0  0
  6  7  1  0  0  0  0
  6 22  1  0  0  0  0
  6 23  1  0  0  0  0
  7 10  4  0  0  0  0
  7 13  4  0  0  0  0
  8 12  1  0  0  0  0
  8 24  1  0  0  0  0
  8 25  1  0  0  0  0
  9 10  4  0  0  0  0
  9 11  4  0  0  0  0
 10 27  1  0  0  0  0
 11 14  4  0  0  0  0
 12 16  4  0  0  0  0
 12 17  4  0  0  0  0
 13 14  4  0  0  0  0
 13 28  1  0  0  0  0
 14 29  1  0  0  0  0
 15 30  1  0  0  0  0
 15 31  1  0  0  0  0
 16 18  4  0  0  0  0
 16 32  1  0  0  0  0
 17 19  4  0  0  0  0
 17 33  1  0  0  0  0
 18 20  4  0  0  0  0
 19 20  4  0  0  0  0
 19 34  1  0  0  0  0
 21 35  1  0  0  0  0
 21 36  1  0  0  0  0
 21 37  1  0  0  0  0
M  END
> <Activity>
0.01

> <Mapped(file=2032.csv.activities,property=Cached(PUBCHEM_COMPOUND_CID))>
100

> <MatchIndices>
6 

> <PUBCHEM_ATOM_DEF_STEREO_COUNT>
0

> <PUBCHEM_ATOM_UDEF_STEREO_COUNT>
0

> <PUBCHEM_BONDANNOTATIONS>
11  14  8
11  17  8
13  14  8
13  15  8
15  18  8
16  20  8
16  21  8
17  18  8
20  22  8
21  23  8
22  24  8
23  24  8

> <PUBCHEM_BOND_DEF_STEREO_COUNT>
0

> <PUBCHEM_BOND_UDEF_STEREO_COUNT>
0

> <PUBCHEM_CACTVS_COMPLEXITY>
402

> <PUBCHEM_CACTVS_HBOND_ACCEPTOR>
8

> <PUBCHEM_CACTVS_HBOND_DONOR>
3

> <PUBCHEM_CACTVS_ROTATABLE_BOND>
6

> <PUBCHEM_CACTVS_SUBSKEYS>
AAADceB6OAAAEAAAAAAAAAAAAAAAASAAAAAwYAAAAAAAAEgBQAAAHgBQCAABrATBmAcyDoLABgCIAiDSCAKCCAAgIAQIiIBOjKgdJiKEsRukMCpkwBGPqhew0BIOIAABEAAARABAAAIgAACIAAAAAAAAAA==

> <PUBCHEM_CACTVS_TAUTO_COUNT>
1

> <PUBCHEM_CACTVS_TPSA>
114

> <PUBCHEM_COMPONENT_COUNT>
2

> <PUBCHEM_COMPOUND_CANONICALIZED>
1

> <PUBCHEM_COMPOUND_CID>
24761107

> <PUBCHEM_COORDINATE_TYPE>
1
5
255

> <PUBCHEM_EXACT_MASS>
439.026664

> <PUBCHEM_HEAVY_ATOM_COUNT>
27

> <PUBCHEM_ISOTOPIC_ATOM_COUNT>
0

> <PUBCHEM_IUPAC_CAS_NAME>
1-(1,3-benzodioxol-5-yl)-N-[(3-bromo-4-methoxyphenyl)methyl]methanamine; oxalic acid

> <PUBCHEM_IUPAC_INCHI>
InChI=1S/C16H16BrNO3.C2H2O4/c1-19-14-4-2-11(6-13(14)17)8-18-9-12-3-5-15-16(7-12)21-10-20-15;3-1(4)2(5)6/h2-7,18H,8-10H2,1H3;(H,3,4)(H,5,6)

> <PUBCHEM_IUPAC_INCHIKEY>
FFWPWJCUFAABLI-UHFFFAOYSA-N

> <PUBCHEM_IUPAC_NAME>
1-(1,3-benzodioxol-5-yl)-N-[(3-bromo-4-methoxyphenyl)methyl]methanamine; oxalic acid

> <PUBCHEM_IUPAC_OPENEYE_NAME>
1-(1,3-benzodioxol-5-yl)-N-[(3-bromo-4-methoxy-phenyl)methyl]methanamine; oxalic acid

> <PUBCHEM_IUPAC_SYSTEMATIC_NAME>
1-(1,3-benzodioxol-5-yl)-N-[(3-bromanyl-4-methoxy-phenyl)methyl]methanamine; ethanedioic acid

> <PUBCHEM_IUPAC_TRADITIONAL_NAME>
(3-bromo-4-methoxy-benzyl)-piperonyl-amine; oxalic acid

> <PUBCHEM_MOLECULAR_FORMULA>
C18H18BrNO7

> <PUBCHEM_MOLECULAR_WEIGHT>
440.24202

> <PUBCHEM_MONOISOTOPIC_WEIGHT>
439.026664

> <PUBCHEM_OPENEYE_CAN_SMILES>
COC1=C(C=C(C=C1)CNCC2=CC3=C(C=C2)OCO3)Br.C(=O)(C(=O)O)O

> <PUBCHEM_OPENEYE_ISO_SMILES>
COC1=C(C=C(C=C1)CNCC2=CC3=C(C=C2)OCO3)Br.C(=O)(C(=O)O)O

> <PUBCHEM_TOTAL_CHARGE>
0

$$$$
Largest isolated from Written by BCL::WriteToMDL,2899426
JMcorina  04211410293D 1   1.00000     0.00000 
CORINA 3.49 0026  01.06.2011
 48 49  0  0  0  0  0  0  0  0999 V2000
   -0.0173    1.4248    0.0099 O   0  0  0  1  0  0  0  0  0  0  0  0
   -0.1432    4.1664    0.2493 O   0  0  0  1  0  0  0  0  0  0  0  0
   -2.1342    5.6245    1.7223 O   0  0  0  1  0  0  0  0  0  0  0  0
   -4.2299    4.0558    0.8701 O   0  0  0  1  0  0  0  0  0  0  0  0
   -2.6387    7.9321    3.1362 O   0  0  0  1  0  0  0  0  0  0  0  0
    0.1143    0.0228   -0.2336 C   0  0  0  1  0  0  0  0  0  0  0  0
    1.1250    2.1627    0.0021 C   0  0  0  1  0  0  0  0  0  0  0  0
    1.0614    3.5479    0.1232 C   0  0  0  1  0  0  0  0  0  0  0  0
   -0.1320    5.5903    0.3692 C   0  0  0  1  0  0  0  0  0  0  0  0
   -1.5678    6.1023    0.5004 C   0  0  0  1  0  0  0  0  0  0  0  0
   -3.4161    5.9917    1.9943 C   0  0  0  1  0  0  0  0  0  0  0  0
    0.4442   -0.6937    1.0773 C   0  0  0  1  0  0  0  0  0  0  0  0
   -1.1997   -0.5226   -0.7963 C   0  0  0  1  0  0  0  0  0  0  0  0
    2.3547    1.5370   -0.1208 C   0  0  0  1  0  0  0  0  0  0  0  0
    2.2278    4.2951    0.1147 C   0  0  0  1  0  0  0  0  0  0  0  0
   -4.4740    5.1996    1.5642 C   0  0  0  1  0  0  0  0  0  0  0  0
   -3.6706    7.1568    2.7079 C   0  0  0  1  0  0  0  0  0  0  0  0
    3.5153    2.2889   -0.1287 C   0  0  0  1  0  0  0  0  0  0  0  0
    3.4518    3.6647   -0.0141 C   0  0  0  1  0  0  0  0  0  0  0  0
   -5.7787    5.5773    1.8434 C   0  0  0  1  0  0  0  0  0  0  0  0
   -4.9782    7.5275    2.9830 C   0  0  0  1  0  0  0  0  0  0  0  0
   -6.0278    6.7398    2.5484 C   0  0  0  1  0  0  0  0  0  0  0  0
   -5.3652    3.2913    0.4596 C   0  0  0  1  0  0  0  0  0  0  0  0
   -2.9746    9.1153    3.8638 C   0  0  0  1  0  0  0  0  0  0  0  0
    0.9158   -0.1474   -0.9524 H   0  0  0  1  0  0  0  0  0  0  0  0
    0.4378    5.8760    1.2534 H   0  0  0  1  0  0  0  0  0  0  0  0
    0.3295    6.0259   -0.5170 H   0  0  0  1  0  0  0  0  0  0  0  0
   -2.1605    5.7416   -0.3403 H   0  0  0  1  0  0  0  0  0  0  0  0
   -1.5661    7.1923    0.5026 H   0  0  0  1  0  0  0  0  0  0  0  0
   -1.4348   -0.0121   -1.7303 H   0  0  0  1  0  0  0  0  0  0  0  0
   -0.3573   -0.5235    1.7961 H   0  0  0  1  0  0  0  0  0  0  0  0
    0.5446   -1.7631    0.8916 H   0  0  0  1  0  0  0  0  0  0  0  0
    1.3804   -0.3051    1.4782 H   0  0  0  1  0  0  0  0  0  0  0  0
   -1.0993   -1.5920   -0.9821 H   0  0  0  1  0  0  0  0  0  0  0  0
   -2.0012   -0.3524   -0.0775 H   0  0  0  1  0  0  0  0  0  0  0  0
    2.4071    0.4620   -0.2102 H   0  0  0  1  0  0  0  0  0  0  0  0
    2.1811    5.3701    0.2082 H   0  0  0  1  0  0  0  0  0  0  0  0
    4.4735    1.7998   -0.2242 H   0  0  0  1  0  0  0  0  0  0  0  0
    4.3605    4.2485   -0.0206 H   0  0  0  1  0  0  0  0  0  0  0  0
   -6.6013    4.9625    1.5092 H   0  0  0  1  0  0  0  0  0  0  0  0
   -5.1769    8.4327    3.5374 H   0  0  0  1  0  0  0  0  0  0  0  0
   -7.0451    7.0314    2.7640 H   0  0  0  1  0  0  0  0  0  0  0  0
   -5.0309    2.4071   -0.0830 H   0  0  0  1  0  0  0  0  0  0  0  0
   -5.9339    2.9853    1.3377 H   0  0  0  1  0  0  0  0  0  0  0  0
   -5.9969    3.8983   -0.1889 H   0  0  0  1  0  0  0  0  0  0  0  0
   -3.5887    9.7639    3.2391 H   0  0  0  1  0  0  0  0  0  0  0  0
   -3.5297    8.8442    4.7619 H   0  0  0  1  0  0  0  0  0  0  0  0
   -2.0618    9.6401    4.1454 H   0  0  0  1  0  0  0  0  0  0  0  0
  1  6  1  0  0  0  0
  1  7  1  0  0  0  0
  2  8  1  0  0  0  0
  2  9  1  0  0  0  0
  3 10  1  0  0  0  0
  3 11  1  0  0  0  0
  4 16  1  0  0  0  0
  4 23  1  0  0  0  0
  5 17  1  0  0  0  0
  5 24  1  0  0  0  0
  6 12  1  0  0  0  0
  6 13  1  0  0  0  0
  6 25  1  0  0  0  0
  7  8  4  0  0  0  0
  7 14  4  0  0  0  0
  8 15  4  0  0  0  0
  9 10  1  0  0  0  0
  9 26  1  0  0  0  0
  9 27  1  0  0  0  0
 10 28  1  0  0  0  0
 10 29  1  0  0  0  0
 11 16  4  0  0  0  0
 11 17  4  0  0  0  0
 12 31  1  0  0  0  0
 12 32  1  0  0  0  0
 12 33  1  0  0  0  0
 13 30  1  0  0  0  0
 13 34  1  0  0  0  0
 13 35  1  0  0  0  0
 14 18  4  0  0  0  0
 14 36  1  0  0  0  0
 15 19  4  0  0  0  0
 15 37  1  0  0  0  0
 16 20  4  0  0  0  0
 17 21  4  0  0  0  0
 18 19  4  0  0  0  0
 18 38  1  0  0  0  0
 19 39  1  0  0  0  0
 20 22  4  0  0  0  0
 20 40  1  0  0  0  0
 21 22  4  0  0  0  0
 21 41  1  0  0  0  0
 22 42  1  0  0  0  0
 23 43  1  0  0  0  0
 23 44  1  0  0  0  0
 23 45  1  0  0  0  0
 24 46  1  0  0  0  0
 24 47  1  0  0  0  0
 24 48  1  0  0  0  0
M  END
> <Activity>
0.01

> <Mapped(file=2032.csv.activities,property=Cached(PUBCHEM_COMPOUND_CID))>
100

> <MatchIndices>
78 

> <PUBCHEM_ATOM_DEF_STEREO_COUNT>
0

> <PUBCHEM_ATOM_UDEF_STEREO_COUNT>
0

> <PUBCHEM_BONDANNOTATIONS>
11  16  8
11  17  8
14  18  8
15  19  8
16  20  8
17  21  8
18  19  8
20  22  8
21  22  8
7  14  8
7  8  8
8  15  8

> <PUBCHEM_BOND_DEF_STEREO_COUNT>
0

> <PUBCHEM_BOND_UDEF_STEREO_COUNT>
0

> <PUBCHEM_CACTVS_COMPLEXITY>
324

> <PUBCHEM_CACTVS_HBOND_ACCEPTOR>
5

> <PUBCHEM_CACTVS_HBOND_DONOR>
0

> <PUBCHEM_CACTVS_ROTATABLE_BOND>
9

> <PUBCHEM_CACTVS_SUBSKEYS>
AAADceB4OAAAAAAAAAAAAAAAAAAAAAAAAAAwYAAAAAAAAAABQAAAGgAAAAAACBSgkAIyBoAABACAACBCAAACCAAgIAAIiAAGiIgNJyKEMRqCOCKlwBUKqAeAYAwAAAAACAAAQAAAAAAQAACAAAAAAAAAAA==

> <PUBCHEM_CACTVS_TAUTO_COUNT>
1

> <PUBCHEM_CACTVS_TPSA>
46.2

> <PUBCHEM_COMPONENT_COUNT>
1

> <PUBCHEM_COMPOUND_CANONICALIZED>
1

> <PUBCHEM_COMPOUND_CID>
2899426

> <PUBCHEM_COORDINATE_TYPE>
1
5
255

> <PUBCHEM_EXACT_MASS>
332.162374

> <PUBCHEM_HEAVY_ATOM_COUNT>
24

> <PUBCHEM_ISOTOPIC_ATOM_COUNT>
0

> <PUBCHEM_IUPAC_CAS_NAME>
1,3-dimethoxy-2-[2-(2-propan-2-yloxyphenoxy)ethoxy]benzene

> <PUBCHEM_IUPAC_INCHI>
InChI=1S/C19H24O5/c1-14(2)24-16-9-6-5-8-15(16)22-12-13-23-19-17(20-3)10-7-11-18(19)21-4/h5-11,14H,12-13H2,1-4H3

> <PUBCHEM_IUPAC_INCHIKEY>
ZHEGJJBIWUGAFU-UHFFFAOYSA-N

> <PUBCHEM_IUPAC_NAME>
1,3-dimethoxy-2-[2-(2-propan-2-yloxyphenoxy)ethoxy]benzene

> <PUBCHEM_IUPAC_OPENEYE_NAME>
2-[2-(2-isopropoxyphenoxy)ethoxy]-1,3-dimethoxy-benzene

> <PUBCHEM_IUPAC_SYSTEMATIC_NAME>
1,3-dimethoxy-2-[2-(2-propan-2-yloxyphenoxy)ethoxy]benzene

> <PUBCHEM_IUPAC_TRADITIONAL_NAME>
2-[2-(2-isopropoxyphenoxy)ethoxy]-1,3-dimethoxy-benzene

> <PUBCHEM_MOLECULAR_FORMULA>
C19H24O5

> <PUBCHEM_MOLECULAR_WEIGHT>
332.39086

> <PUBCHEM_MONOISOTOPIC_WEIGHT>
332.162374

> <PUBCHEM_OPENEYE_CAN_SMILES>
CC(C)OC1=CC=CC=C1OCCOC2=C(C=CC=C2OC)OC

> <PUBCHEM_OPENEYE_ISO_SMILES>
CC(C)OC1=CC=CC=C1OCCOC2=C(C=CC=C2OC)OC

> <PUBCHEM_TOTAL_CHARGE>
0

> <PUBCHEM_XLOGP3_AA>
4.3

$$$$
Largest isolated from Written by BCL::WriteToMDL,17367616
JMcorina  04211410293D 1   1.00000     0.00000 
CORINA 3.49 0026  01.06.2011
 48 50  0  0  0  0  0  0  0  0999 V2000
   -0.0164    1.3548    0.0095 O   0  0  0  1  0  0  0  0  0  0  0  0
    0.0155   -2.7539   -2.3851 O   0  0  0  1  0  0  0  0  0  0  0  0
   -1.3404    0.4754    2.8283 N   0  0  0  1  0  0  0  0  0  0  0  0
   -3.0666    2.8654    7.8632 N   0  0  0  1  0  0  0  0  0  0  0  0
   -2.8123    1.6426    4.3994 C   0  0  0  1  0  0  0  0  0  0  0  0
   -2.8487    2.3943    5.7051 C   0  0  0  1  0  0  0  0  0  0  0  0
   -1.3759    1.2082    4.1010 C   0  0  0  1  0  0  0  0  0  0  0  0
   -2.5835    3.8223    5.8961 C   0  0  0  1  0  0  0  0  0  0  0  0
   -2.7345    4.0647    7.2738 C   0  0  0  1  0  0  0  0  0  0  0  0
    0.0262    0.0416    2.5086 C   0  0  0  1  0  0  0  0  0  0  0  0
   -3.1300    1.8823    6.9136 C   0  0  0  1  0  0  0  0  0  0  0  0
    0.0230   -0.7048    1.1994 C   0  0  0  1  0  0  0  0  0  0  0  0
   -2.2438    4.8694    5.0378 C   0  0  0  1  0  0  0  0  0  0  0  0
    0.0021   -0.0041    0.0020 C   0  0  0  1  0  0  0  0  0  0  0  0
   -2.5414    5.3518    7.7644 C   0  0  0  1  0  0  0  0  0  0  0  0
   -0.0004   -0.6914   -1.2022 C   0  0  0  1  0  0  0  0  0  0  0  0
    0.0465   -2.0865    1.1924 C   0  0  0  1  0  0  0  0  0  0  0  0
   -2.0588    6.1264    5.5412 C   0  0  0  1  0  0  0  0  0  0  0  0
    0.0179   -2.0774   -1.2065 C   0  0  0  1  0  0  0  0  0  0  0  0
   -2.2058    6.3706    6.8995 C   0  0  0  1  0  0  0  0  0  0  0  0
    0.0441   -2.7737   -0.0061 C   0  0  0  1  0  0  0  0  0  0  0  0
   -0.0236    0.0672   -2.5041 C   0  0  0  1  0  0  0  0  0  0  0  0
    1.2479    2.0208    0.0010 C   0  0  0  1  0  0  0  0  0  0  0  0
    0.0352   -4.1810   -2.3141 C   0  0  0  1  0  0  0  0  0  0  0  0
   -3.4511    0.7622    4.4691 H   0  0  0  1  0  0  0  0  0  0  0  0
   -3.1704    2.2888    3.5980 H   0  0  0  1  0  0  0  0  0  0  0  0
   -1.0179    0.5619    4.9024 H   0  0  0  1  0  0  0  0  0  0  0  0
   -0.7371    2.0886    4.0313 H   0  0  0  1  0  0  0  0  0  0  0  0
    0.6748    0.9140    2.4279 H   0  0  0  1  0  0  0  0  0  0  0  0
    0.3940   -0.6127    3.2990 H   0  0  0  1  0  0  0  0  0  0  0  0
   -1.9743   -0.3094    2.8451 H   0  0  0  1  0  0  0  0  0  0  0  0
   -3.3707    0.8475    7.1078 H   0  0  0  1  0  0  0  0  0  0  0  0
   -3.2275    2.7360    8.8110 H   0  0  0  1  0  0  0  0  0  0  0  0
   -2.1267    4.6867    3.9798 H   0  0  0  1  0  0  0  0  0  0  0  0
   -2.6545    5.5521    8.8196 H   0  0  0  1  0  0  0  0  0  0  0  0
    0.0669   -2.6301    2.1254 H   0  0  0  1  0  0  0  0  0  0  0  0
   -1.7960    6.9362    4.8767 H   0  0  0  1  0  0  0  0  0  0  0  0
   -2.0566    7.3694    7.2823 H   0  0  0  1  0  0  0  0  0  0  0  0
    0.0633   -3.8535   -0.0090 H   0  0  0  1  0  0  0  0  0  0  0  0
    0.9983    0.2640   -2.8282 H   0  0  0  1  0  0  0  0  0  0  0  0
   -0.5369   -0.5259   -3.2611 H   0  0  0  1  0  0  0  0  0  0  0  0
   -0.5490    1.0120   -2.3649 H   0  0  0  1  0  0  0  0  0  0  0  0
    1.8173    1.7307    0.8840 H   0  0  0  1  0  0  0  0  0  0  0  0
    1.8003    1.7403   -0.8958 H   0  0  0  1  0  0  0  0  0  0  0  0
    1.0905    3.0993    0.0083 H   0  0  0  1  0  0  0  0  0  0  0  0
   -0.8451   -4.5300   -1.7743 H   0  0  0  1  0  0  0  0  0  0  0  0
    0.0309   -4.5950   -3.3224 H   0  0  0  1  0  0  0  0  0  0  0  0
    0.9346   -4.5064   -1.7915 H   0  0  0  1  0  0  0  0  0  0  0  0
  1 14  1  0  0  0  0
  1 23  1  0  0  0  0
  2 19  1  0  0  0  0
  2 24  1  0  0  0  0
  3  7  1  0  0  0  0
  3 10  1  0  0  0  0
  3 31  1  0  0  0  0
  4  9  4  0  0  0  0
  4 11  4  0  0  0  0
  4 33  1  0  0  0  0
  5  6  1  0  0  0  0
  5  7  1  0  0  0  0
  5 25  1  0  0  0  0
  5 26  1  0  0  0  0
  6  8  4  0  0  0  0
  6 11  4  0  0  0  0
  7 27  1  0  0  0  0
  7 28  1  0  0  0  0
  8  9  4  0  0  0  0
  8 13  4  0  0  0  0
  9 15  4  0  0  0  0
 10 12  1  0  0  0  0
 10 29  1  0  0  0  0
 10 30  1  0  0  0  0
 11 32  1  0  0  0  0
 12 14  4  0  0  0  0
 12 17  4  0  0  0  0
 13 18  4  0  0  0  0
 13 34  1  0  0  0  0
 14 16  4  0  0  0  0
 15 20  4  0  0  0  0
 15 35  1  0  0  0  0
 16 19  4  0  0  0  0
 16 22  1  0  0  0  0
 17 21  4  0  0  0  0
 17 36  1  0  0  0  0
 18 20  4  0  0  0  0
 18 37  1  0  0  0  0
 19 21  4  0  0  0  0
 20 38  1  0  0  0  0
 21 39  1  0  0  0  0
 22 40  1  0  0  0  0
 22 41  1  0  0  0  0
 22 42  1  0  0  0  0
 23 43  1  0  0  0  0
 23 44  1  0  0  0  0
 23 45  1  0  0  0  0
 24 46  1  0  0  0  0
 24 47  1  0  0  0  0
 24 48  1  0  0  0  0
M  END
> <Activity>
0.01

> <Mapped(file=2032.csv.activities,property=Cached(PUBCHEM_COMPOUND_CID))>
100

> <MatchIndices>
212 

> <PUBCHEM_ATOM_DEF_STEREO_COUNT>
0

> <PUBCHEM_ATOM_UDEF_STEREO_COUNT>
0

> <PUBCHEM_BONDANNOTATIONS>
10  12  8
10  15  8
12  13  8
12  17  8
13  19  8
16  18  8
16  21  8
17  22  8
18  20  8
19  24  8
20  23  8
21  25  8
22  24  8
23  25  8
8  13  8
8  15  8

> <PUBCHEM_BOND_DEF_STEREO_COUNT>
0

> <PUBCHEM_BOND_UDEF_STEREO_COUNT>
0

> <PUBCHEM_CACTVS_COMPLEXITY>
450

> <PUBCHEM_CACTVS_HBOND_ACCEPTOR>
7

> <PUBCHEM_CACTVS_HBOND_DONOR>
4

> <PUBCHEM_CACTVS_ROTATABLE_BOND>
8

> <PUBCHEM_CACTVS_SUBSKEYS>
AAADceB7OAAAAAAAAAAAAAAAAAAAAWAAAAAwYAAAAAAAAFgB9AAAHgAQCAAADAzBngY+zvLJlgCoAzT3TAKCiCAxIiAI2aB+bJgNJ+LEsZuEMChn0BXJ6AeQ8O4OoAACCAAKAABAAAQQABQAAAAAAAAAAA==

> <PUBCHEM_CACTVS_TAUTO_COUNT>
1

> <PUBCHEM_CACTVS_TPSA>
121

> <PUBCHEM_COMPONENT_COUNT>
2

> <PUBCHEM_COMPOUND_CANONICALIZED>
1

> <PUBCHEM_COMPOUND_CID>
17367616

> <PUBCHEM_COORDINATE_TYPE>
1
5
255

> <PUBCHEM_EXACT_MASS>
414.179087

> <PUBCHEM_HEAVY_ATOM_COUNT>
30

> <PUBCHEM_ISOTOPIC_ATOM_COUNT>
0

> <PUBCHEM_IUPAC_CAS_NAME>
N-[(2,4-dimethoxy-3-methylphenyl)methyl]-2-(1H-indol-3-yl)ethanamine; oxalic acid

> <PUBCHEM_IUPAC_INCHI>
InChI=1S/C20H24N2O2.C2H2O4/c1-14-19(23-2)9-8-16(20(14)24-3)12-21-11-10-15-13-22-18-7-5-4-6-17(15)18;3-1(4)2(5)6/h4-9,13,21-22H,10-12H2,1-3H3;(H,3,4)(H,5,6)

> <PUBCHEM_IUPAC_INCHIKEY>
FLIIARILWXPYLW-UHFFFAOYSA-N

> <PUBCHEM_IUPAC_NAME>
N-[(2,4-dimethoxy-3-methylphenyl)methyl]-2-(1H-indol-3-yl)ethanamine; oxalic acid

> <PUBCHEM_IUPAC_OPENEYE_NAME>
N-[(2,4-dimethoxy-3-methyl-phenyl)methyl]-2-(1H-indol-3-yl)ethanamine; oxalic acid

> <PUBCHEM_IUPAC_SYSTEMATIC_NAME>
N-[(2,4-dimethoxy-3-methyl-phenyl)methyl]-2-(1H-indol-3-yl)ethanamine; ethanedioic acid

> <PUBCHEM_IUPAC_TRADITIONAL_NAME>
(2,4-dimethoxy-3-methyl-benzyl)-[2-(1H-indol-3-yl)ethyl]amine; oxalic acid

> <PUBCHEM_MOLECULAR_FORMULA>
C22H26N2O6

> <PUBCHEM_MOLECULAR_WEIGHT>
414.45164

> <PUBCHEM_MONOISOTOPIC_WEIGHT>
414.179087

> <PUBCHEM_OPENEYE_CAN_SMILES>
CC1=C(C=CC(=C1OC)CNCCC2=CNC3=CC=CC=C32)OC.C(=O)(C(=O)O)O

> <PUBCHEM_OPENEYE_ISO_SMILES>
CC1=C(C=CC(=C1OC)CNCCC2=CNC3=CC=CC=C32)OC.C(=O)(C(=O)O)O

> <PUBCHEM_TOTAL_CHARGE>
0

$$$$
Largest isolated from Written by BCL::WriteToMDL,2896543
JMcorina  04211410293D 1   1.00000     0.00000 
CORINA 3.49 0026  01.06.2011
 46 47  0  0  0  0  0  0  0  0999 V2000
   -0.0225    1.8097    0.0120 S   0  0  0  1  0  0  0  0  0  0  0  0
   -2.3423    0.1584   -0.2156 O   0  0  0  1  0  0  0  0  0  0  0  0
   -8.2162   -5.6203    1.8853 O   0  0  0  1  0  0  0  0  0  0  0  0
   -1.6223   -1.7541    0.6480 N   0  0  0  1  0  0  0  0  0  0  0  0
   -2.9572   -3.6674    1.3822 C   0  0  0  1  0  0  0  0  0  0  0  0
   -2.9903   -2.2618    0.7788 C   0  0  0  1  0  0  0  0  0  0  0  0
    0.0021   -0.0041    0.0020 C   0  0  0  1  0  0  0  0  0  0  0  0
   -4.3644   -4.1896    1.5166 C   0  0  0  1  0  0  0  0  0  0  0  0
   -1.4051   -0.5263    0.1365 C   0  0  0  1  0  0  0  0  0  0  0  0
    1.7392    2.2418   -0.0025 C   0  0  0  1  0  0  0  0  0  0  0  0
    0.6061   -0.4987   -1.3138 C   0  0  0  1  0  0  0  0  0  0  0  0
   -4.9393   -4.8992    0.4785 C   0  0  0  1  0  0  0  0  0  0  0  0
   -5.0763   -3.9632    2.6801 C   0  0  0  1  0  0  0  0  0  0  0  0
    1.8887    3.7414    0.0041 C   0  0  0  1  0  0  0  0  0  0  0  0
   -6.2290   -5.3793    0.5995 C   0  0  0  1  0  0  0  0  0  0  0  0
   -6.3662   -4.4413    2.8060 C   0  0  0  1  0  0  0  0  0  0  0  0
   -6.9473   -5.1490    1.7638 C   0  0  0  1  0  0  0  0  0  0  0  0
    1.9687    4.4227    1.2042 C   0  0  0  1  0  0  0  0  0  0  0  0
    1.9515    4.4350   -1.1900 C   0  0  0  1  0  0  0  0  0  0  0  0
    2.1058    5.7982    1.2103 C   0  0  0  1  0  0  0  0  0  0  0  0
    2.0887    5.8105   -1.1839 C   0  0  0  1  0  0  0  0  0  0  0  0
    2.1634    6.4924    0.0163 C   0  0  0  1  0  0  0  0  0  0  0  0
   -8.8957   -5.3456    3.1120 C   0  0  0  1  0  0  0  0  0  0  0  0
   -2.3848   -4.3287    0.7316 H   0  0  0  1  0  0  0  0  0  0  0  0
   -2.4881   -3.6298    2.3654 H   0  0  0  1  0  0  0  0  0  0  0  0
   -3.5626   -1.6005    1.4293 H   0  0  0  1  0  0  0  0  0  0  0  0
   -3.4594   -2.2994   -0.2044 H   0  0  0  1  0  0  0  0  0  0  0  0
    0.6044   -0.3639    0.8362 H   0  0  0  1  0  0  0  0  0  0  0  0
   -0.8728   -2.3017    0.9297 H   0  0  0  1  0  0  0  0  0  0  0  0
    2.2229    1.8245    0.8807 H   0  0  0  1  0  0  0  0  0  0  0  0
    2.2059    1.8341   -0.8992 H   0  0  0  1  0  0  0  0  0  0  0  0
    0.0037   -0.1389   -2.1480 H   0  0  0  1  0  0  0  0  0  0  0  0
    1.6239   -0.1210   -1.4111 H   0  0  0  1  0  0  0  0  0  0  0  0
    0.6208   -1.5886   -1.3198 H   0  0  0  1  0  0  0  0  0  0  0  0
   -4.3799   -5.0779   -0.4278 H   0  0  0  1  0  0  0  0  0  0  0  0
   -4.6234   -3.4125    3.4913 H   0  0  0  1  0  0  0  0  0  0  0  0
   -6.6778   -5.9333   -0.2117 H   0  0  0  1  0  0  0  0  0  0  0  0
   -6.9218   -4.2645    3.7152 H   0  0  0  1  0  0  0  0  0  0  0  0
    1.9238    3.8804    2.1371 H   0  0  0  1  0  0  0  0  0  0  0  0
    1.8938    3.9022   -2.1276 H   0  0  0  1  0  0  0  0  0  0  0  0
    2.1676    6.3306    2.1479 H   0  0  0  1  0  0  0  0  0  0  0  0
    2.1381    6.3524   -2.1168 H   0  0  0  1  0  0  0  0  0  0  0  0
    2.2702    7.5671    0.0210 H   0  0  0  1  0  0  0  0  0  0  0  0
   -9.8963   -5.7764    3.0775 H   0  0  0  1  0  0  0  0  0  0  0  0
   -8.3399   -5.7835    3.9412 H   0  0  0  1  0  0  0  0  0  0  0  0
   -8.9690   -4.2672    3.2531 H   0  0  0  1  0  0  0  0  0  0  0  0
  1  7  1  0  0  0  0
  1 10  1  0  0  0  0
  2  9  2  0  0  0  0
  3 17  1  0  0  0  0
  3 23  1  0  0  0  0
  4  6  1  0  0  0  0
  4  9  1  0  0  0  0
  4 29  1  0  0  0  0
  5  6  1  0  0  0  0
  5  8  1  0  0  0  0
  5 24  1  0  0  0  0
  5 25  1  0  0  0  0
  6 26  1  0  0  0  0
  6 27  1  0  0  0  0
  7  9  1  0  0  0  0
  7 11  1  0  0  0  0
  7 28  1  0  0  0  0
  8 12  4  0  0  0  0
  8 13  4  0  0  0  0
 10 14  1  0  0  0  0
 10 30  1  0  0  0  0
 10 31  1  0  0  0  0
 11 32  1  0  0  0  0
 11 33  1  0  0  0  0
 11 34  1  0  0  0  0
 12 15  4  0  0  0  0
 12 35  1  0  0  0  0
 13 16  4  0  0  0  0
 13 36  1  0  0  0  0
 14 18  4  0  0  0  0
 14 19  4  0  0  0  0
 15 17  4  0  0  0  0
 15 37  1  0  0  0  0
 16 17  4  0  0  0  0
 16 38  1  0  0  0  0
 18 20  4  0  0  0  0
 18 39  1  0  0  0  0
 19 21  4  0  0  0  0
 19 40  1  0  0  0  0
 20 22  4  0  0  0  0
 20 41  1  0  0  0  0
 21 22  4  0  0  0  0
 21 42  1  0  0  0  0
 22 43  1  0  0  0  0
 23 44  1  0  0  0  0
 23 45  1  0  0  0  0
 23 46  1  0  0  0  0
M  END
> <Activity>
0.01

> <Mapped(file=2032.csv.activities,property=Cached(PUBCHEM_COMPOUND_CID))>
100

> <MatchIndices>
39 

> <PUBCHEM_ATOM_DEF_STEREO_COUNT>
0

> <PUBCHEM_ATOM_UDEF_STEREO_COUNT>
1

> <PUBCHEM_BONDANNOTATIONS>
12  15  8
13  16  8
14  18  8
14  19  8
15  17  8
16  17  8
18  20  8
19  21  8
20  22  8
21  22  8
7  28  3
8  12  8
8  13  8

> <PUBCHEM_BOND_DEF_STEREO_COUNT>
0

> <PUBCHEM_BOND_UDEF_STEREO_COUNT>
0

> <PUBCHEM_CACTVS_COMPLEXITY>
336

> <PUBCHEM_CACTVS_HBOND_ACCEPTOR>
3

> <PUBCHEM_CACTVS_HBOND_DONOR>
1

> <PUBCHEM_CACTVS_ROTATABLE_BOND>
8

> <PUBCHEM_CACTVS_SUBSKEYS>
AAADceB6MABAAAAAAAAAAAAAAAAAAAAAAAAwYAAAAAAAAAABQAAAHgQQAAAADATF2AayBoLABAiIAiFSEAACCAAgIBAIiIEOCIgMJiKksRuEMCAk1hGoqAeQwIAOIAAAAAAAAABAAAAAAAAAAAAAAAAAAA==

> <PUBCHEM_CACTVS_TAUTO_COUNT>
2

> <PUBCHEM_CACTVS_TPSA>
63.6

> <PUBCHEM_COMPONENT_COUNT>
1

> <PUBCHEM_COMPOUND_CANONICALIZED>
1

> <PUBCHEM_COMPOUND_CID>
2896543

> <PUBCHEM_COORDINATE_TYPE>
1
5
255

> <PUBCHEM_EXACT_MASS>
329.14495

> <PUBCHEM_HEAVY_ATOM_COUNT>
23

> <PUBCHEM_ISOTOPIC_ATOM_COUNT>
0

> <PUBCHEM_IUPAC_CAS_NAME>
N-[2-(4-methoxyphenyl)ethyl]-2-(phenylmethylthio)propanamide

> <PUBCHEM_IUPAC_INCHI>
InChI=1S/C19H23NO2S/c1-15(23-14-17-6-4-3-5-7-17)19(21)20-13-12-16-8-10-18(22-2)11-9-16/h3-11,15H,12-14H2,1-2H3,(H,20,21)

> <PUBCHEM_IUPAC_INCHIKEY>
DIJOPJPJNZSEIX-UHFFFAOYSA-N

> <PUBCHEM_IUPAC_NAME>
2-benzylsulfanyl-N-[2-(4-methoxyphenyl)ethyl]propanamide

> <PUBCHEM_IUPAC_OPENEYE_NAME>
2-benzylsulfanyl-N-[2-(4-methoxyphenyl)ethyl]propanamide

> <PUBCHEM_IUPAC_SYSTEMATIC_NAME>
N-[2-(4-methoxyphenyl)ethyl]-2-(phenylmethylsulfanyl)propanamide

> <PUBCHEM_IUPAC_TRADITIONAL_NAME>
2-(benzylthio)-N-[2-(4-methoxyphenyl)ethyl]propionamide

> <PUBCHEM_MOLECULAR_FORMULA>
C19H23NO2S

> <PUBCHEM_MOLECULAR_WEIGHT>
329.45642

> <PUBCHEM_MONOISOTOPIC_WEIGHT>
329.14495

> <PUBCHEM_OPENEYE_CAN_SMILES>
CC(C(=O)NCCC1=CC=C(C=C1)OC)SCC2=CC=CC=C2

> <PUBCHEM_OPENEYE_ISO_SMILES>
CC(C(=O)NCCC1=CC=C(C=C1)OC)SCC2=CC=CC=C2

> <PUBCHEM_TOTAL_CHARGE>
0

> <PUBCHEM_XLOGP3_AA>
4

$$$$
Largest isolated from Written by BCL::WriteToMDL,2969907
JMcorina  04211410293D 1   1.00000     0.00000 
CORINA 3.49 0026  01.06.2011
 40 41  0  0  0  0  0  0  0  0999 V2000
    0.0633   -4.5065   -0.0117 Cl  0  0  0  1  0  0  0  0  0  0  0  0
   -4.6228    4.4035   -2.1875 F   0  0  0  1  0  0  0  0  0  0  0  0
   -0.0164    1.3550    0.0095 O   0  0  0  1  0  0  0  0  0  0  0  0
   -2.8289    0.4763   -1.3309 N   0  0  0  1  0  0  0  0  0  0  0  0
   -4.1083    1.1979   -1.3525 C   0  0  0  1  0  0  0  0  0  0  0  0
   -4.4110    1.6569   -2.7802 C   0  0  0  1  0  0  0  0  0  0  0  0
   -2.5050    0.0195    0.0271 C   0  0  0  1  0  0  0  0  0  0  0  0
   -1.1890   -0.7147    0.0096 C   0  0  0  1  0  0  0  0  0  0  0  0
   -5.7235    2.3971   -2.8023 C   0  0  0  1  0  0  0  0  0  0  0  0
    0.0021   -0.0041    0.0020 C   0  0  0  1  0  0  0  0  0  0  0  0
   -1.1682   -2.0962    0.0068 C   0  0  0  1  0  0  0  0  0  0  0  0
   -5.7618    3.7484   -2.5016 C   0  0  0  1  0  0  0  0  0  0  0  0
   -6.8883    1.7292   -3.1281 C   0  0  0  1  0  0  0  0  0  0  0  0
    1.2124   -0.6822   -0.0136 C   0  0  0  1  0  0  0  0  0  0  0  0
    0.0396   -2.7707   -0.0088 C   0  0  0  1  0  0  0  0  0  0  0  0
    1.2290   -2.0633   -0.0217 C   0  0  0  1  0  0  0  0  0  0  0  0
   -6.9681    4.4272   -2.5228 C   0  0  0  1  0  0  0  0  0  0  0  0
   -8.0926    2.4082   -3.1489 C   0  0  0  1  0  0  0  0  0  0  0  0
    1.2479    2.0210    0.0010 C   0  0  0  1  0  0  0  0  0  0  0  0
   -8.1328    3.7557   -2.8439 C   0  0  0  1  0  0  0  0  0  0  0  0
    1.0269    3.5349    0.0112 C   0  0  0  1  0  0  0  0  0  0  0  0
   -4.9037    0.5376   -1.0068 H   0  0  0  1  0  0  0  0  0  0  0  0
   -4.0466    2.0665   -0.6969 H   0  0  0  1  0  0  0  0  0  0  0  0
   -3.6156    2.3171   -3.1259 H   0  0  0  1  0  0  0  0  0  0  0  0
   -4.4728    0.7882   -3.4358 H   0  0  0  1  0  0  0  0  0  0  0  0
   -2.4321    0.8799    0.6922 H   0  0  0  1  0  0  0  0  0  0  0  0
   -3.2892   -0.6490    0.3824 H   0  0  0  1  0  0  0  0  0  0  0  0
   -2.8387   -0.2965   -1.9797 H   0  0  0  1  0  0  0  0  0  0  0  0
   -2.0954   -2.6499    0.0172 H   0  0  0  1  0  0  0  0  0  0  0  0
   -6.8581    0.6763   -3.3670 H   0  0  0  1  0  0  0  0  0  0  0  0
    2.1408   -0.1306   -0.0199 H   0  0  0  1  0  0  0  0  0  0  0  0
    2.1709   -2.5916   -0.0342 H   0  0  0  1  0  0  0  0  0  0  0  0
   -6.9992    5.4809   -2.2881 H   0  0  0  1  0  0  0  0  0  0  0  0
   -9.0025    1.8853   -3.4041 H   0  0  0  1  0  0  0  0  0  0  0  0
    1.8173    1.7310    0.8840 H   0  0  0  1  0  0  0  0  0  0  0  0
    1.8003    1.7405   -0.8958 H   0  0  0  1  0  0  0  0  0  0  0  0
   -9.0741    4.2850   -2.8601 H   0  0  0  1  0  0  0  0  0  0  0  0
    0.4745    3.8154    0.9081 H   0  0  0  1  0  0  0  0  0  0  0  0
    1.9913    4.0430    0.0048 H   0  0  0  1  0  0  0  0  0  0  0  0
    0.4575    3.8250   -0.8718 H   0  0  0  1  0  0  0  0  0  0  0  0
  1 15  1  0  0  0  0
  2 12  1  0  0  0  0
  3 10  1  0  0  0  0
  3 19  1  0  0  0  0
  4  5  1  0  0  0  0
  4  7  1  0  0  0  0
  4 28  1  0  0  0  0
  5  6  1  0  0  0  0
  5 22  1  0  0  0  0
  5 23  1  0  0  0  0
  6  9  1  0  0  0  0
  6 24  1  0  0  0  0
  6 25  1  0  0  0  0
  7  8  1  0  0  0  0
  7 26  1  0  0  0  0
  7 27  1  0  0  0  0
  8 10  4  0  0  0  0
  8 11  4  0  0  0  0
  9 12  4  0  0  0  0
  9 13  4  0  0  0  0
 10 14  4  0  0  0  0
 11 15  4  0  0  0  0
 11 29  1  0  0  0  0
 12 17  4  0  0  0  0
 13 18  4  0  0  0  0
 13 30  1  0  0  0  0
 14 16  4  0  0  0  0
 14 31  1  0  0  0  0
 15 16  4  0  0  0  0
 16 32  1  0  0  0  0
 17 20  4  0  0  0  0
 17 33  1  0  0  0  0
 18 20  4  0  0  0  0
 18 34  1  0  0  0  0
 19 21  1  0  0  0  0
 19 35  1  0  0  0  0
 19 36  1  0  0  0  0
 20 37  1  0  0  0  0
 21 38  1  0  0  0  0
 21 39  1  0  0  0  0
 21 40  1  0  0  0  0
M  END
> <Activity>
0.01

> <Mapped(file=2032.csv.activities,property=Cached(PUBCHEM_COMPOUND_CID))>
100

> <MatchIndices>
52 

> <PUBCHEM_ATOM_DEF_STEREO_COUNT>
0

> <PUBCHEM_ATOM_UDEF_STEREO_COUNT>
0

> <PUBCHEM_BONDANNOTATIONS>
10  13  8
10  14  8
11  15  8
12  16  8
13  18  8
14  19  8
15  17  8
16  17  8
18  21  8
19  21  8
9  11  8
9  12  8

> <PUBCHEM_BOND_DEF_STEREO_COUNT>
0

> <PUBCHEM_BOND_UDEF_STEREO_COUNT>
0

> <PUBCHEM_CACTVS_COMPLEXITY>
292

> <PUBCHEM_CACTVS_HBOND_ACCEPTOR>
3

> <PUBCHEM_CACTVS_HBOND_DONOR>
2

> <PUBCHEM_CACTVS_ROTATABLE_BOND>
7

> <PUBCHEM_CACTVS_SUBSKEYS>
AAADceB6IQAGAAAAAAAAAAAAAAAAAAAAAAAwYAAAAAAAAAABQAAAHwIQAAAADAbhmC4yBoLABACAAiBCAACCCAAgJQAIiIAODogMJiKFsxuGOCjm0BGIqAeQwKAOACAAIAAIAAAAQABAABAAAAAAAAAAAA==

> <PUBCHEM_CACTVS_TAUTO_COUNT>
1

> <PUBCHEM_CACTVS_TPSA>
21.3

> <PUBCHEM_COMPONENT_COUNT>
2

> <PUBCHEM_COMPOUND_CANONICALIZED>
1

> <PUBCHEM_COMPOUND_CID>
2969907

> <PUBCHEM_COORDINATE_TYPE>
1
5
255

> <PUBCHEM_EXACT_MASS>
343.090598

> <PUBCHEM_HEAVY_ATOM_COUNT>
22

> <PUBCHEM_ISOTOPIC_ATOM_COUNT>
0

> <PUBCHEM_IUPAC_CAS_NAME>
N-[(5-chloro-2-ethoxyphenyl)methyl]-2-(2-fluorophenyl)ethanamine hydrochloride

> <PUBCHEM_IUPAC_INCHI>
InChI=1S/C17H19ClFNO.ClH/c1-2-21-17-8-7-15(18)11-14(17)12-20-10-9-13-5-3-4-6-16(13)19;/h3-8,11,20H,2,9-10,12H2,1H3;1H

> <PUBCHEM_IUPAC_INCHIKEY>
PCEUIGBKNNRKIM-UHFFFAOYSA-N

> <PUBCHEM_IUPAC_NAME>
N-[(5-chloro-2-ethoxyphenyl)methyl]-2-(2-fluorophenyl)ethanamine hydrochloride

> <PUBCHEM_IUPAC_OPENEYE_NAME>
N-[(5-chloro-2-ethoxy-phenyl)methyl]-2-(2-fluorophenyl)ethanamine hydrochloride

> <PUBCHEM_IUPAC_SYSTEMATIC_NAME>
N-[(5-chloranyl-2-ethoxy-phenyl)methyl]-2-(2-fluorophenyl)ethanamine hydrochloride

> <PUBCHEM_IUPAC_TRADITIONAL_NAME>
(5-chloro-2-ethoxy-benzyl)-[2-(2-fluorophenyl)ethyl]amine hydrochloride

> <PUBCHEM_MOLECULAR_FORMULA>
C17H20Cl2FNO

> <PUBCHEM_MOLECULAR_WEIGHT>
344.251203

> <PUBCHEM_MONOISOTOPIC_WEIGHT>
343.090598

> <PUBCHEM_OPENEYE_CAN_SMILES>
CCOC1=C(C=C(C=C1)Cl)CNCCC2=CC=CC=C2F.Cl

> <PUBCHEM_OPENEYE_ISO_SMILES>
CCOC1=C(C=C(C=C1)Cl)CNCCC2=CC=CC=C2F.Cl

> <PUBCHEM_TOTAL_CHARGE>
0

$$$$
Largest isolated from Written by BCL::WriteToMDL,2934526
JMcorina  04211410293D 1   1.00000     0.00000 
CORINA 3.49 0026  01.06.2011
 41 42  0  0  0  0  0  0  0  0999 V2000
   -2.0863    4.9087    0.2659 Cl  0  0  0  1  0  0  0  0  0  0  0  0
    2.8137    5.3478    2.5217 Cl  0  0  0  1  0  0  0  0  0  0  0  0
   -0.0173    1.4248    0.0099 O   0  0  0  1  0  0  0  0  0  0  0  0
    0.5393    3.9622    1.2393 O   0  0  0  1  0  0  0  0  0  0  0  0
   -2.1072   -0.1473   -1.2339 N   0  0  0  1  0  0  0  0  0  0  0  0
   -1.4333   -0.5336    0.0129 C   0  0  0  1  0  0  0  0  0  0  0  0
   -3.4910   -0.6398   -1.2589 C   0  0  0  1  0  0  0  0  0  0  0  0
    0.0021   -0.0041    0.0020 C   0  0  0  1  0  0  0  0  0  0  0  0
   -4.1486   -0.2251   -2.5498 C   0  0  0  1  0  0  0  0  0  0  0  0
    1.2801    2.0237    0.0007 C   0  0  0  1  0  0  0  0  0  0  0  0
    1.1386    3.5471    0.0102 C   0  0  0  1  0  0  0  0  0  0  0  0
   -4.0796   -1.0501   -3.6569 C   0  0  0  1  0  0  0  0  0  0  0  0
   -4.8257    0.9777   -2.6253 C   0  0  0  1  0  0  0  0  0  0  0  0
   -4.6828   -0.6696   -4.8410 C   0  0  0  1  0  0  0  0  0  0  0  0
   -5.4289    1.3582   -3.8095 C   0  0  0  1  0  0  0  0  0  0  0  0
   -5.3554    0.5356   -4.9181 C   0  0  0  1  0  0  0  0  0  0  0  0
    0.3413    5.2963    1.4098 C   0  0  0  1  0  0  0  0  0  0  0  0
   -0.8488    5.8806    0.9992 C   0  0  0  1  0  0  0  0  0  0  0  0
    1.3265    6.0756    2.0000 C   0  0  0  1  0  0  0  0  0  0  0  0
   -1.0476    7.2377    1.1743 C   0  0  0  1  0  0  0  0  0  0  0  0
    1.1221    7.4321    2.1726 C   0  0  0  1  0  0  0  0  0  0  0  0
   -0.0623    8.0124    1.7578 C   0  0  0  1  0  0  0  0  0  0  0  0
   -1.9701   -0.1109    0.8621 H   0  0  0  1  0  0  0  0  0  0  0  0
   -1.4190   -1.6203    0.0965 H   0  0  0  1  0  0  0  0  0  0  0  0
   -3.4910   -1.7273   -1.1841 H   0  0  0  1  0  0  0  0  0  0  0  0
   -4.0421   -0.2178   -0.4184 H   0  0  0  1  0  0  0  0  0  0  0  0
    0.5123   -0.3556   -0.8948 H   0  0  0  1  0  0  0  0  0  0  0  0
    0.5293   -0.3651    0.8851 H   0  0  0  1  0  0  0  0  0  0  0  0
   -2.0769    0.8525   -1.3665 H   0  0  0  1  0  0  0  0  0  0  0  0
    1.8338    1.7047    0.8837 H   0  0  0  1  0  0  0  0  0  0  0  0
    1.8168    1.7143   -0.8961 H   0  0  0  1  0  0  0  0  0  0  0  0
    0.5101    3.8589   -0.8239 H   0  0  0  1  0  0  0  0  0  0  0  0
    2.1235    4.0041   -0.0863 H   0  0  0  1  0  0  0  0  0  0  0  0
   -3.5541   -1.9917   -3.5967 H   0  0  0  1  0  0  0  0  0  0  0  0
   -4.8837    1.6201   -1.7590 H   0  0  0  1  0  0  0  0  0  0  0  0
   -4.6282   -1.3138   -5.7062 H   0  0  0  1  0  0  0  0  0  0  0  0
   -5.9582    2.2977   -3.8684 H   0  0  0  1  0  0  0  0  0  0  0  0
   -5.8264    0.8330   -5.8433 H   0  0  0  1  0  0  0  0  0  0  0  0
   -1.9733    7.6929    0.8547 H   0  0  0  1  0  0  0  0  0  0  0  0
    1.8882    8.0390    2.6321 H   0  0  0  1  0  0  0  0  0  0  0  0
   -0.2198    9.0722    1.8936 H   0  0  0  1  0  0  0  0  0  0  0  0
  1 18  1  0  0  0  0
  2 19  1  0  0  0  0
  3  8  1  0  0  0  0
  3 10  1  0  0  0  0
  4 11  1  0  0  0  0
  4 17  1  0  0  0  0
  5  6  1  0  0  0  0
  5  7  1  0  0  0  0
  5 29  1  0  0  0  0
  6  8  1  0  0  0  0
  6 23  1  0  0  0  0
  6 24  1  0  0  0  0
  7  9  1  0  0  0  0
  7 25  1  0  0  0  0
  7 26  1  0  0  0  0
  8 27  1  0  0  0  0
  8 28  1  0  0  0  0
  9 12  4  0  0  0  0
  9 13  4  0  0  0  0
 10 11  1  0  0  0  0
 10 30  1  0  0  0  0
 10 31  1  0  0  0  0
 11 32  1  0  0  0  0
 11 33  1  0  0  0  0
 12 14  4  0  0  0  0
 12 34  1  0  0  0  0
 13 15  4  0  0  0  0
 13 35  1  0  0  0  0
 14 16  4  0  0  0  0
 14 36  1  0  0  0  0
 15 16  4  0  0  0  0
 15 37  1  0  0  0  0
 16 38  1  0  0  0  0
 17 18  4  0  0  0  0
 17 19  4  0  0  0  0
 18 20  4  0  0  0  0
 19 21  4  0  0  0  0
 20 22  4  0  0  0  0
 20 39  1  0  0  0  0
 21 22  4  0  0  0  0
 21 40  1  0  0  0  0
 22 41  1  0  0  0  0
M  END
> <Activity>
0.01

> <Mapped(file=2032.csv.activities,property=Cached(PUBCHEM_COMPOUND_CID))>
100

> <MatchIndices>
18 

> <PUBCHEM_ATOM_DEF_STEREO_COUNT>
0

> <PUBCHEM_ATOM_UDEF_STEREO_COUNT>
0

> <PUBCHEM_BONDANNOTATIONS>
13  16  8
13  17  8
16  18  8
17  19  8
18  20  8
19  20  8
21  22  8
21  23  8
22  24  8
23  25  8
24  26  8
25  26  8

> <PUBCHEM_BOND_DEF_STEREO_COUNT>
0

> <PUBCHEM_BOND_UDEF_STEREO_COUNT>
0

> <PUBCHEM_CACTVS_COMPLEXITY>
349

> <PUBCHEM_CACTVS_HBOND_ACCEPTOR>
7

> <PUBCHEM_CACTVS_HBOND_DONOR>
3

> <PUBCHEM_CACTVS_ROTATABLE_BOND>
10

> <PUBCHEM_CACTVS_SUBSKEYS>
AAADceB6OAAGAAAAAAAAAAAAAAAAAAAAAAAwYAAAAAAAAAABQAAAHgIQCAAADAbhmCYwDoLABgCIAiDSCAKCCAAgJUAIiIBMD4gPJiOFsxuHOCjk0BGbqAeQwAAOAAAAAACACAAAAAAAAQAQAAAAAAAAAA==

> <PUBCHEM_CACTVS_TAUTO_COUNT>
1

> <PUBCHEM_CACTVS_TPSA>
105

> <PUBCHEM_COMPONENT_COUNT>
2

> <PUBCHEM_COMPOUND_CANONICALIZED>
1

> <PUBCHEM_COMPOUND_CID>
2934526

> <PUBCHEM_COORDINATE_TYPE>
1
5
255

> <PUBCHEM_EXACT_MASS>
429.074593

> <PUBCHEM_HEAVY_ATOM_COUNT>
28

> <PUBCHEM_ISOTOPIC_ATOM_COUNT>
0

> <PUBCHEM_IUPAC_CAS_NAME>
2-[2-(2,6-dichlorophenoxy)ethoxy]-N-(phenylmethyl)ethanamine; oxalic acid

> <PUBCHEM_IUPAC_INCHI>
InChI=1S/C17H19Cl2NO2.C2H2O4/c18-15-7-4-8-16(19)17(15)22-12-11-21-10-9-20-13-14-5-2-1-3-6-14;3-1(4)2(5)6/h1-8,20H,9-13H2;(H,3,4)(H,5,6)

> <PUBCHEM_IUPAC_INCHIKEY>
MVINPAUTMDZABP-UHFFFAOYSA-N

> <PUBCHEM_IUPAC_NAME>
N-benzyl-2-[2-(2,6-dichlorophenoxy)ethoxy]ethanamine; oxalic acid

> <PUBCHEM_IUPAC_OPENEYE_NAME>
N-benzyl-2-[2-(2,6-dichlorophenoxy)ethoxy]ethanamine; oxalic acid

> <PUBCHEM_IUPAC_SYSTEMATIC_NAME>
2-[2-[2,6-bis(chloranyl)phenoxy]ethoxy]-N-(phenylmethyl)ethanamine; ethanedioic acid

> <PUBCHEM_IUPAC_TRADITIONAL_NAME>
benzyl-[2-[2-(2,6-dichlorophenoxy)ethoxy]ethyl]amine; oxalic acid

> <PUBCHEM_MOLECULAR_FORMULA>
C19H21Cl2NO6

> <PUBCHEM_MOLECULAR_WEIGHT>
430.27914

> <PUBCHEM_MONOISOTOPIC_WEIGHT>
429.074593

> <PUBCHEM_OPENEYE_CAN_SMILES>
C1=CC=C(C=C1)CNCCOCCOC2=C(C=CC=C2Cl)Cl.C(=O)(C(=O)O)O

> <PUBCHEM_OPENEYE_ISO_SMILES>
C1=CC=C(C=C1)CNCCOCCOC2=C(C=CC=C2Cl)Cl.C(=O)(C(=O)O)O

> <PUBCHEM_TOTAL_CHARGE>
0

$$$$
Largest isolated from Written by BCL::WriteToMDL,24684626
JMcorina  04211410293D 1   1.00000     0.00000 
CORINA 3.49 0026  01.06.2011
 39 41  0  0  0  0  0  0  0  0999 V2000
    6.0108    6.7581   -0.0871 Cl  0  0  0  1  0  0  0  0  0  0  0  0
    1.0283   -0.5496   -0.2758 O   0  0  0  1  0  0  0  0  0  0  0  0
   -0.0462    1.3632    0.0541 N   0  0  0  1  0  0  0  0  0  0  0  0
   -1.2866   -0.7758    0.1239 C   0  0  0  1  0  0  0  0  0  0  0  0
   -2.0794   -0.5718    1.4165 C   0  0  0  1  0  0  0  0  0  0  0  0
   -1.2967   -1.8678    1.1955 C   0  0  0  1  0  0  0  0  0  0  0  0
   -2.0683   -1.0326   -1.1386 C   0  0  0  1  0  0  0  0  0  0  0  0
   -0.0180    0.0195   -0.0471 C   0  0  0  1  0  0  0  0  0  0  0  0
   -1.4054   -1.3488   -2.3097 C   0  0  0  1  0  0  0  0  0  0  0  0
   -3.4485   -0.9575   -1.1244 C   0  0  0  1  0  0  0  0  0  0  0  0
    1.2020    2.1282   -0.0005 C   0  0  0  1  0  0  0  0  0  0  0  0
   -2.1224   -1.5844   -3.4679 C   0  0  0  1  0  0  0  0  0  0  0  0
   -4.1655   -1.1930   -2.2825 C   0  0  0  1  0  0  0  0  0  0  0  0
    0.8921    3.6202    0.1366 C   0  0  0  1  0  0  0  0  0  0  0  0
   -3.5024   -1.5041   -3.4548 C   0  0  0  1  0  0  0  0  0  0  0  0
    2.1761    4.4071    0.0805 C   0  0  0  1  0  0  0  0  0  0  0  0
    2.6593    4.8553   -1.1348 C   0  0  0  1  0  0  0  0  0  0  0  0
    2.8673    4.6855    1.2449 C   0  0  0  1  0  0  0  0  0  0  0  0
    3.8368    5.5771   -1.1869 C   0  0  0  1  0  0  0  0  0  0  0  0
    4.0445    5.4080    1.1941 C   0  0  0  1  0  0  0  0  0  0  0  0
    4.5318    5.8515   -0.0224 C   0  0  0  1  0  0  0  0  0  0  0  0
   -1.8688   -2.7719    0.9873 H   0  0  0  1  0  0  0  0  0  0  0  0
   -0.3858   -2.0110    1.7768 H   0  0  0  1  0  0  0  0  0  0  0  0
   -1.6834    0.1376    2.1432 H   0  0  0  1  0  0  0  0  0  0  0  0
   -3.1663   -0.6234    1.3537 H   0  0  0  1  0  0  0  0  0  0  0  0
   -0.8933    1.8240    0.1590 H   0  0  0  1  0  0  0  0  0  0  0  0
   -0.3272   -1.4116   -2.3199 H   0  0  0  1  0  0  0  0  0  0  0  0
   -3.9667   -0.7151   -0.2083 H   0  0  0  1  0  0  0  0  0  0  0  0
    1.8552    1.8164    0.8145 H   0  0  0  1  0  0  0  0  0  0  0  0
    1.6983    1.9462   -0.9537 H   0  0  0  1  0  0  0  0  0  0  0  0
   -1.6045   -1.8307   -4.3830 H   0  0  0  1  0  0  0  0  0  0  0  0
   -5.2439   -1.1346   -2.2712 H   0  0  0  1  0  0  0  0  0  0  0  0
    0.2390    3.9320   -0.6784 H   0  0  0  1  0  0  0  0  0  0  0  0
    0.3959    3.8021    1.0899 H   0  0  0  1  0  0  0  0  0  0  0  0
   -4.0625   -1.6877   -4.3597 H   0  0  0  1  0  0  0  0  0  0  0  0
    2.1167    4.6411   -2.0437 H   0  0  0  1  0  0  0  0  0  0  0  0
    2.4873    4.3386    2.1944 H   0  0  0  1  0  0  0  0  0  0  0  0
    4.2145    5.9266   -2.1364 H   0  0  0  1  0  0  0  0  0  0  0  0
    4.5845    5.6254    2.1039 H   0  0  0  1  0  0  0  0  0  0  0  0
  1 21  1  0  0  0  0
  2  8  2  0  0  0  0
  3  8  1  0  0  0  0
  3 11  1  0  0  0  0
  3 26  1  0  0  0  0
  4  5  1  0  0  0  0
  4  6  1  0  0  0  0
  4  7  1  0  0  0  0
  4  8  1  0  0  0  0
  5  6  1  0  0  0  0
  5 24  1  0  0  0  0
  5 25  1  0  0  0  0
  6 22  1  0  0  0  0
  6 23  1  0  0  0  0
  7  9  4  0  0  0  0
  7 10  4  0  0  0  0
  9 12  4  0  0  0  0
  9 27  1  0  0  0  0
 10 13  4  0  0  0  0
 10 28  1  0  0  0  0
 11 14  1  0  0  0  0
 11 29  1  0  0  0  0
 11 30  1  0  0  0  0
 12 15  4  0  0  0  0
 12 31  1  0  0  0  0
 13 15  4  0  0  0  0
 13 32  1  0  0  0  0
 14 16  1  0  0  0  0
 14 33  1  0  0  0  0
 14 34  1  0  0  0  0
 15 35  1  0  0  0  0
 16 17  4  0  0  0  0
 16 18  4  0  0  0  0
 17 19  4  0  0  0  0
 17 36  1  0  0  0  0
 18 20  4  0  0  0  0
 18 37  1  0  0  0  0
 19 21  4  0  0  0  0
 19 38  1  0  0  0  0
 20 21  4  0  0  0  0
 20 39  1  0  0  0  0
M  END
> <Activity>
0.01

> <Mapped(file=2032.csv.activities,property=Cached(PUBCHEM_COMPOUND_CID))>
100

> <MatchIndices>
68 

> <PUBCHEM_ATOM_DEF_STEREO_COUNT>
0

> <PUBCHEM_ATOM_UDEF_STEREO_COUNT>
0

> <PUBCHEM_BONDANNOTATIONS>
10  13  8
12  15  8
13  15  8
16  17  8
16  18  8
17  19  8
18  20  8
19  21  8
20  21  8
7  10  8
7  9  8
9  12  8

> <PUBCHEM_BOND_DEF_STEREO_COUNT>
0

> <PUBCHEM_BOND_UDEF_STEREO_COUNT>
0

> <PUBCHEM_CACTVS_COMPLEXITY>
352

> <PUBCHEM_CACTVS_HBOND_ACCEPTOR>
1

> <PUBCHEM_CACTVS_HBOND_DONOR>
1

> <PUBCHEM_CACTVS_ROTATABLE_BOND>
5

> <PUBCHEM_CACTVS_SUBSKEYS>
AAADceB6IAAEAAAAAAAAAAAAGAAAAAAAAAAwYAAAAAAAAAABQAAAHgIQAAAADgLBmCQwAILAAACIAiFSEAACAAAgBQAIiIEIAogIIDKBlxGEIAAglgCIiAcYiMCPhAAAAAAAAAAIAAAAAAAAAAAAAAAAAA==

> <PUBCHEM_CACTVS_TAUTO_COUNT>
2

> <PUBCHEM_CACTVS_TPSA>
29.1

> <PUBCHEM_COMPONENT_COUNT>
1

> <PUBCHEM_COMPOUND_CANONICALIZED>
1

> <PUBCHEM_COMPOUND_CID>
24684626

> <PUBCHEM_COORDINATE_TYPE>
1
5
255

> <PUBCHEM_EXACT_MASS>
299.107692

> <PUBCHEM_HEAVY_ATOM_COUNT>
21

> <PUBCHEM_ISOTOPIC_ATOM_COUNT>
0

> <PUBCHEM_IUPAC_CAS_NAME>
N-[2-(4-chlorophenyl)ethyl]-1-phenyl-1-cyclopropanecarboxamide

> <PUBCHEM_IUPAC_INCHI>
InChI=1S/C18H18ClNO/c19-16-8-6-14(7-9-16)10-13-20-17(21)18(11-12-18)15-4-2-1-3-5-15/h1-9H,10-13H2,(H,20,21)

> <PUBCHEM_IUPAC_INCHIKEY>
DYSXUWYDYMFPAX-UHFFFAOYSA-N

> <PUBCHEM_IUPAC_NAME>
N-[2-(4-chlorophenyl)ethyl]-1-phenylcyclopropane-1-carboxamide

> <PUBCHEM_IUPAC_OPENEYE_NAME>
N-[2-(4-chlorophenyl)ethyl]-1-phenyl-cyclopropanecarboxamide

> <PUBCHEM_IUPAC_SYSTEMATIC_NAME>
N-[2-(4-chlorophenyl)ethyl]-1-phenyl-cyclopropane-1-carboxamide

> <PUBCHEM_IUPAC_TRADITIONAL_NAME>
N-[2-(4-chlorophenyl)ethyl]-1-phenyl-cyclopropanecarboxamide

> <PUBCHEM_MOLECULAR_FORMULA>
C18H18ClNO

> <PUBCHEM_MOLECULAR_WEIGHT>
299.79462

> <PUBCHEM_MONOISOTOPIC_WEIGHT>
299.107692

> <PUBCHEM_OPENEYE_CAN_SMILES>
C1CC1(C2=CC=CC=C2)C(=O)NCCC3=CC=C(C=C3)Cl

> <PUBCHEM_OPENEYE_ISO_SMILES>
C1CC1(C2=CC=CC=C2)C(=O)NCCC3=CC=C(C=C3)Cl

> <PUBCHEM_TOTAL_CHARGE>
0

> <PUBCHEM_XLOGP3_AA>
4.1

$$$$
Largest isolated from Written by BCL::WriteToMDL,16192635
JMcorina  04211410293D 1   1.00000     0.00000 
CORINA 3.49 0026  01.06.2011
 50 52  0  0  0  0  0  0  0  0999 V2000
   11.3208   11.5788   10.7186 O   0  0  0  1  0  0  0  0  0  0  0  0
   11.3159   10.2113    8.3271 O   0  0  0  1  0  0  0  0  0  0  0  0
    9.9961   10.6961   13.5361 N   0  0  0  1  0  0  0  0  0  0  0  0
    6.8391   13.4563   14.9131 N   0  0  0  1  0  0  0  0  0  0  0  0
   11.3601    9.5185   11.9060 C   0  0  0  1  0  0  0  0  0  0  0  0
   11.3629   10.2633   13.2161 C   0  0  0  1  0  0  0  0  0  0  0  0
   11.3393   10.2190   10.7111 C   0  0  0  1  0  0  0  0  0  0  0  0
   11.3368    9.5281    9.5028 C   0  0  0  1  0  0  0  0  0  0  0  0
    9.9600   11.4272   14.8098 C   0  0  0  1  0  0  0  0  0  0  0  0
   11.3838    8.1359   11.8965 C   0  0  0  1  0  0  0  0  0  0  0  0
   11.3552    8.1429    9.5004 C   0  0  0  1  0  0  0  0  0  0  0  0
   11.3817    7.4498   10.6968 C   0  0  0  1  0  0  0  0  0  0  0  0
   12.5851   12.2448   10.7101 C   0  0  0  1  0  0  0  0  0  0  0  0
    8.5450   11.8543   15.1040 C   0  0  0  1  0  0  0  0  0  0  0  0
   12.3674   13.7360   10.7202 C   0  0  0  1  0  0  0  0  0  0  0  0
   11.3146    9.4364    7.1264 C   0  0  0  1  0  0  0  0  0  0  0  0
    7.6974   11.0268   15.8249 C   0  0  0  1  0  0  0  0  0  0  0  0
    8.0760   13.0756   14.6591 C   0  0  0  1  0  0  0  0  0  0  0  0
   12.2790   14.4135   11.9219 C   0  0  0  1  0  0  0  0  0  0  0  0
   12.2618   14.4272    9.5277 C   0  0  0  1  0  0  0  0  0  0  0  0
    6.4044   11.4610   16.0722 C   0  0  0  1  0  0  0  0  0  0  0  0
   12.0793   15.7813   11.9311 C   0  0  0  1  0  0  0  0  0  0  0  0
   12.0621   15.7950    9.5369 C   0  0  0  1  0  0  0  0  0  0  0  0
   11.2899   10.3718    5.9159 C   0  0  0  1  0  0  0  0  0  0  0  0
   11.9684   16.4717   10.7387 C   0  0  0  1  0  0  0  0  0  0  0  0
    6.0057   12.6957   15.5953 C   0  0  0  1  0  0  0  0  0  0  0  0
   12.0111   11.1359   13.1366 H   0  0  0  1  0  0  0  0  0  0  0  0
   11.7307    9.6081   14.0057 H   0  0  0  1  0  0  0  0  0  0  0  0
    9.6086   11.2524   12.7888 H   0  0  0  1  0  0  0  0  0  0  0  0
   10.3182   10.7801   15.6104 H   0  0  0  1  0  0  0  0  0  0  0  0
   10.5986   12.3080   14.7413 H   0  0  0  1  0  0  0  0  0  0  0  0
   11.4042    7.5910   12.8288 H   0  0  0  1  0  0  0  0  0  0  0  0
   11.3533    7.6044    8.5643 H   0  0  0  1  0  0  0  0  0  0  0  0
   11.4006    6.3700   10.6935 H   0  0  0  1  0  0  0  0  0  0  0  0
   13.1545   11.9548   11.5931 H   0  0  0  1  0  0  0  0  0  0  0  0
   13.1375   11.9644    9.8133 H   0  0  0  1  0  0  0  0  0  0  0  0
   12.2128    8.8199    7.0909 H   0  0  0  1  0  0  0  0  0  0  0  0
   10.4330    8.7956    7.1085 H   0  0  0  1  0  0  0  0  0  0  0  0
    8.0365   10.0666   16.1849 H   0  0  0  1  0  0  0  0  0  0  0  0
    8.7298   13.7257   14.0967 H   0  0  0  1  0  0  0  0  0  0  0  0
   12.3656   13.8741   12.8535 H   0  0  0  1  0  0  0  0  0  0  0  0
   12.3356   13.8986    8.5888 H   0  0  0  1  0  0  0  0  0  0  0  0
    5.7171   10.8425   16.6304 H   0  0  0  1  0  0  0  0  0  0  0  0
   12.0095   16.3105   12.8700 H   0  0  0  1  0  0  0  0  0  0  0  0
   11.9800   16.3350    8.6053 H   0  0  0  1  0  0  0  0  0  0  0  0
   10.3918   10.9884    5.9514 H   0  0  0  1  0  0  0  0  0  0  0  0
   12.1715   11.0126    5.9338 H   0  0  0  1  0  0  0  0  0  0  0  0
   11.2889    9.7808    5.0000 H   0  0  0  1  0  0  0  0  0  0  0  0
   11.8121   17.5403   10.7459 H   0  0  0  1  0  0  0  0  0  0  0  0
    5.0000   13.0413   15.7837 H   0  0  0  1  0  0  0  0  0  0  0  0
  1  7  1  0  0  0  0
  1 13  1  0  0  0  0
  2  8  1  0  0  0  0
  2 16  1  0  0  0  0
  3  6  1  0  0  0  0
  3  9  1  0  0  0  0
  3 29  1  0  0  0  0
  4 18  4  0  0  0  0
  4 26  4  0  0  0  0
  5  6  1  0  0  0  0
  5  7  4  0  0  0  0
  5 10  4  0  0  0  0
  6 27  1  0  0  0  0
  6 28  1  0  0  0  0
  7  8  4  0  0  0  0
  8 11  4  0  0  0  0
  9 14  1  0  0  0  0
  9 30  1  0  0  0  0
  9 31  1  0  0  0  0
 10 12  4  0  0  0  0
 10 32  1  0  0  0  0
 11 12  4  0  0  0  0
 11 33  1  0  0  0  0
 12 34  1  0  0  0  0
 13 15  1  0  0  0  0
 13 35  1  0  0  0  0
 13 36  1  0  0  0  0
 14 17  4  0  0  0  0
 14 18  4  0  0  0  0
 15 19  4  0  0  0  0
 15 20  4  0  0  0  0
 16 24  1  0  0  0  0
 16 37  1  0  0  0  0
 16 38  1  0  0  0  0
 17 21  4  0  0  0  0
 17 39  1  0  0  0  0
 18 40  1  0  0  0  0
 19 22  4  0  0  0  0
 19 41  1  0  0  0  0
 20 23  4  0  0  0  0
 20 42  1  0  0  0  0
 21 26  4  0  0  0  0
 21 43  1  0  0  0  0
 22 25  4  0  0  0  0
 22 44  1  0  0  0  0
 23 25  4  0  0  0  0
 23 45  1  0  0  0  0
 24 46  1  0  0  0  0
 24 47  1  0  0  0  0
 24 48  1  0  0  0  0
 25 49  1  0  0  0  0
 26 50  1  0  0  0  0
M  END
> <Activity>
0.01

> <Mapped(file=2032.csv.activities,property=Cached(PUBCHEM_COMPOUND_CID))>
100

> <MatchIndices>
83 

> <PUBCHEM_ATOM_DEF_STEREO_COUNT>
0

> <PUBCHEM_ATOM_UDEF_STEREO_COUNT>
0

> <PUBCHEM_BONDANNOTATIONS>
11  13  8
12  13  8
15  18  8
15  19  8
16  20  8
16  21  8
18  22  8
20  23  8
21  24  8
22  27  8
23  26  8
24  26  8
5  19  8
5  27  8
6  11  8
6  8  8
8  9  8
9  12  8

> <PUBCHEM_BOND_DEF_STEREO_COUNT>
0

> <PUBCHEM_BOND_UDEF_STEREO_COUNT>
0

> <PUBCHEM_CACTVS_COMPLEXITY>
373

> <PUBCHEM_CACTVS_HBOND_ACCEPTOR>
4

> <PUBCHEM_CACTVS_HBOND_DONOR>
2

> <PUBCHEM_CACTVS_ROTATABLE_BOND>
9

> <PUBCHEM_CACTVS_SUBSKEYS>
AAADceB7MAAEAAAAAAAAAAAAAAAAAAAAAAA8YIAAAAAAAAAB0AAAHgAQAAAADAThmgY+hpLIFACgAjBnRACCiCAxIiAI2KA+7JgNJuLE8ZuGOCrmwBHK6AewwDAOAAABAAAIQAAAAAIAABCAAAAAAAAAAA==

> <PUBCHEM_CACTVS_TAUTO_COUNT>
1

> <PUBCHEM_CACTVS_TPSA>
43.4

> <PUBCHEM_COMPONENT_COUNT>
2

> <PUBCHEM_COMPOUND_CANONICALIZED>
1

> <PUBCHEM_COMPOUND_CID>
16192635

> <PUBCHEM_COORDINATE_TYPE>
1
5
255

> <PUBCHEM_EXACT_MASS>
384.160456

> <PUBCHEM_HEAVY_ATOM_COUNT>
27

> <PUBCHEM_ISOTOPIC_ATOM_COUNT>
0

> <PUBCHEM_IUPAC_CAS_NAME>
N-[(3-ethoxy-2-phenylmethoxyphenyl)methyl]-1-(3-pyridinyl)methanamine hydrochloride

> <PUBCHEM_IUPAC_INCHI>
InChI=1S/C22H24N2O2.ClH/c1-2-25-21-12-6-11-20(16-24-15-19-10-7-13-23-14-19)22(21)26-17-18-8-4-3-5-9-18;/h3-14,24H,2,15-17H2,1H3;1H

> <PUBCHEM_IUPAC_INCHIKEY>
WMUTVXCYQMMSFY-UHFFFAOYSA-N

> <PUBCHEM_IUPAC_NAME>
N-[(3-ethoxy-2-phenylmethoxyphenyl)methyl]-1-pyridin-3-ylmethanamine hydrochloride

> <PUBCHEM_IUPAC_OPENEYE_NAME>
N-[(2-benzyloxy-3-ethoxy-phenyl)methyl]-1-(3-pyridyl)methanamine hydrochloride

> <PUBCHEM_IUPAC_SYSTEMATIC_NAME>
N-[(3-ethoxy-2-phenylmethoxy-phenyl)methyl]-1-pyridin-3-yl-methanamine hydrochloride

> <PUBCHEM_IUPAC_TRADITIONAL_NAME>
(2-benzoxy-3-ethoxy-benzyl)-(3-pyridylmethyl)amine hydrochloride

> <PUBCHEM_MOLECULAR_FORMULA>
C22H25ClN2O2

> <PUBCHEM_MOLECULAR_WEIGHT>
384.8991

> <PUBCHEM_MONOISOTOPIC_WEIGHT>
384.160456

> <PUBCHEM_OPENEYE_CAN_SMILES>
CCOC1=CC=CC(=C1OCC2=CC=CC=C2)CNCC3=CN=CC=C3.Cl

> <PUBCHEM_OPENEYE_ISO_SMILES>
CCOC1=CC=CC(=C1OCC2=CC=CC=C2)CNCC3=CN=CC=C3.Cl

> <PUBCHEM_TOTAL_CHARGE>
0

$$$$
Largest isolated from Written by BCL::WriteToMDL,882485
JMcorina  04211410293D 1   1.00000     0.00000 
CORINA 3.49 0026  01.06.2011
 39 39  0  0  0  0  0  0  0  0999 V2000
   -3.2569    3.1249    5.0947 Cl  0  0  0  1  0  0  0  0  0  0  0  0
   -0.0172    1.4168    0.0098 S   0  0  0  1  0  0  0  0  0  0  0  0
    0.0021   -0.0041    0.0020 O   0  0  0  1  0  0  0  0  0  0  0  0
    1.1617    2.2101    0.0028 O   0  0  0  1  0  0  0  0  0  0  0  0
   -3.4593    0.5392    3.6765 O   0  0  0  1  0  0  0  0  0  0  0  0
   -0.9002    1.8797   -1.3124 N   0  0  0  1  0  0  0  0  0  0  0  0
   -0.7022    3.2084   -1.8968 C   0  0  0  1  0  0  0  0  0  0  0  0
   -1.8794    0.9606   -1.8977 C   0  0  0  1  0  0  0  0  0  0  0  0
    0.2961    3.1137   -3.0524 C   0  0  0  1  0  0  0  0  0  0  0  0
   -3.2658    1.2589   -1.3231 C   0  0  0  1  0  0  0  0  0  0  0  0
   -0.9297    1.8941    1.4396 C   0  0  0  1  0  0  0  0  0  0  0  0
    0.5029    4.5013   -3.6628 C   0  0  0  1  0  0  0  0  0  0  0  0
   -4.2884    0.2989   -1.9344 C   0  0  0  1  0  0  0  0  0  0  0  0
   -1.8423    1.0208    1.9990 C   0  0  0  1  0  0  0  0  0  0  0  0
   -0.7274    3.1403    2.0037 C   0  0  0  1  0  0  0  0  0  0  0  0
   -2.5605    1.3967    3.1246 C   0  0  0  1  0  0  0  0  0  0  0  0
   -1.4415    3.5182    3.1255 C   0  0  0  1  0  0  0  0  0  0  0  0
   -2.3601    2.6503    3.6860 C   0  0  0  1  0  0  0  0  0  0  0  0
   -3.6137   -0.7335    3.0454 C   0  0  0  1  0  0  0  0  0  0  0  0
   -1.8988    1.0911   -2.9797 H   0  0  0  1  0  0  0  0  0  0  0  0
   -1.6010   -0.0662   -1.6604 H   0  0  0  1  0  0  0  0  0  0  0  0
   -1.6540    3.5872   -2.2691 H   0  0  0  1  0  0  0  0  0  0  0  0
   -0.3141    3.8858   -1.1361 H   0  0  0  1  0  0  0  0  0  0  0  0
    1.2480    2.7349   -2.6801 H   0  0  0  1  0  0  0  0  0  0  0  0
   -0.0920    2.4363   -3.8131 H   0  0  0  1  0  0  0  0  0  0  0  0
   -3.2464    1.1284   -0.2412 H   0  0  0  1  0  0  0  0  0  0  0  0
   -3.5442    2.2856   -1.5604 H   0  0  0  1  0  0  0  0  0  0  0  0
   -4.0100   -0.7278   -1.6972 H   0  0  0  1  0  0  0  0  0  0  0  0
   -5.2761    0.5114   -1.5251 H   0  0  0  1  0  0  0  0  0  0  0  0
   -4.3078    0.4294   -3.0164 H   0  0  0  1  0  0  0  0  0  0  0  0
    1.2141    4.4338   -4.4861 H   0  0  0  1  0  0  0  0  0  0  0  0
   -0.4489    4.8800   -4.0351 H   0  0  0  1  0  0  0  0  0  0  0  0
    0.8910    5.1787   -2.9021 H   0  0  0  1  0  0  0  0  0  0  0  0
   -1.9966    0.0462    1.5601 H   0  0  0  1  0  0  0  0  0  0  0  0
   -0.0099    3.8195    1.5673 H   0  0  0  1  0  0  0  0  0  0  0  0
   -1.2817    4.4921    3.5642 H   0  0  0  1  0  0  0  0  0  0  0  0
   -3.9394   -0.5910    2.0150 H   0  0  0  1  0  0  0  0  0  0  0  0
   -2.6604   -1.2620    3.0553 H   0  0  0  1  0  0  0  0  0  0  0  0
   -4.3590   -1.3183    3.5844 H   0  0  0  1  0  0  0  0  0  0  0  0
  1 18  1  0  0  0  0
  2  3  2  0  0  0  0
  2  4  2  0  0  0  0
  2  6  1  0  0  0  0
  2 11  1  0  0  0  0
  5 16  1  0  0  0  0
  5 19  1  0  0  0  0
  6  7  1  0  0  0  0
  6  8  1  0  0  0  0
  7  9  1  0  0  0  0
  7 22  1  0  0  0  0
  7 23  1  0  0  0  0
  8 10  1  0  0  0  0
  8 20  1  0  0  0  0
  8 21  1  0  0  0  0
  9 12  1  0  0  0  0
  9 24  1  0  0  0  0
  9 25  1  0  0  0  0
 10 13  1  0  0  0  0
 10 26  1  0  0  0  0
 10 27  1  0  0  0  0
 11 14  4  0  0  0  0
 11 15  4  0  0  0  0
 12 31  1  0  0  0  0
 12 32  1  0  0  0  0
 12 33  1  0  0  0  0
 13 28  1  0  0  0  0
 13 29  1  0  0  0  0
 13 30  1  0  0  0  0
 14 16  4  0  0  0  0
 14 34  1  0  0  0  0
 15 17  4  0  0  0  0
 15 35  1  0  0  0  0
 16 18  4  0  0  0  0
 17 18  4  0  0  0  0
 17 36  1  0  0  0  0
 19 37  1  0  0  0  0
 19 38  1  0  0  0  0
 19 39  1  0  0  0  0
M  END
> <Activity>
0.01

> <Mapped(file=2032.csv.activities,property=Cached(PUBCHEM_COMPOUND_CID))>
100

> <MatchIndices>
113 

> <PUBCHEM_ATOM_DEF_STEREO_COUNT>
0

> <PUBCHEM_ATOM_UDEF_STEREO_COUNT>
0

> <PUBCHEM_BONDANNOTATIONS>
11  14  8
11  15  8
14  16  8
15  17  8
16  18  8
17  18  8

> <PUBCHEM_BOND_DEF_STEREO_COUNT>
0

> <PUBCHEM_BOND_UDEF_STEREO_COUNT>
0

> <PUBCHEM_CACTVS_COMPLEXITY>
349

> <PUBCHEM_CACTVS_HBOND_ACCEPTOR>
4

> <PUBCHEM_CACTVS_HBOND_DONOR>
0

> <PUBCHEM_CACTVS_ROTATABLE_BOND>
7

> <PUBCHEM_CACTVS_SUBSKEYS>
AAADceByMABEAAAAAAAAAAAAAAAAAAAAAAAwAAAAAAAAAAABAAAAHgYAQAAACAbB0CYyB4IABAKAACBCAHBCCBAgJUAIiBgOC4gMJiOFMxqEMCAkwBGIqAeAQAAAAAIABAAACAAABAAIAAAQAAAAAAAAAA==

> <PUBCHEM_CACTVS_TAUTO_COUNT>
1

> <PUBCHEM_CACTVS_TPSA>
55

> <PUBCHEM_COMPONENT_COUNT>
1

> <PUBCHEM_COMPOUND_CANONICALIZED>
1

> <PUBCHEM_COMPOUND_CID>
882485

> <PUBCHEM_COORDINATE_TYPE>
1
5
255

> <PUBCHEM_EXACT_MASS>
305.085242

> <PUBCHEM_HEAVY_ATOM_COUNT>
19

> <PUBCHEM_ISOTOPIC_ATOM_COUNT>
0

> <PUBCHEM_IUPAC_CAS_NAME>
4-chloro-3-methoxy-N,N-dipropylbenzenesulfonamide

> <PUBCHEM_IUPAC_INCHI>
InChI=1S/C13H20ClNO3S/c1-4-8-15(9-5-2)19(16,17)11-6-7-12(14)13(10-11)18-3/h6-7,10H,4-5,8-9H2,1-3H3

> <PUBCHEM_IUPAC_INCHIKEY>
FWYAVBKFNQPRHI-UHFFFAOYSA-N

> <PUBCHEM_IUPAC_NAME>
4-chloro-3-methoxy-N,N-dipropylbenzenesulfonamide

> <PUBCHEM_IUPAC_OPENEYE_NAME>
4-chloro-3-methoxy-N,N-dipropyl-benzenesulfonamide

> <PUBCHEM_IUPAC_SYSTEMATIC_NAME>
4-chloranyl-3-methoxy-N,N-dipropyl-benzenesulfonamide

> <PUBCHEM_IUPAC_TRADITIONAL_NAME>
4-chloro-3-methoxy-N,N-dipropyl-benzenesulfonamide

> <PUBCHEM_MOLECULAR_FORMULA>
C13H20ClNO3S

> <PUBCHEM_MOLECULAR_WEIGHT>
305.8208

> <PUBCHEM_MONOISOTOPIC_WEIGHT>
305.085242

> <PUBCHEM_OPENEYE_CAN_SMILES>
CCCN(CCC)S(=O)(=O)C1=CC(=C(C=C1)Cl)OC

> <PUBCHEM_OPENEYE_ISO_SMILES>
CCCN(CCC)S(=O)(=O)C1=CC(=C(C=C1)Cl)OC

> <PUBCHEM_TOTAL_CHARGE>
0

> <PUBCHEM_XLOGP3>
4.1

$$$$
Largest isolated from Written by BCL::WriteToMDL,23724050
JMcorina  04211410293D 1   1.00000     0.00000 
CORINA 3.49 0026  01.06.2011
 62 64  0  0  0  0  0  0  0  0999 V2000
   13.2638   -7.8658    6.2429 F   0  0  0  1  0  0  0  0  0  0  0  0
   -0.0164    1.3557    0.0095 O   0  0  0  1  0  0  0  0  0  0  0  0
   -2.3810   -0.0568    0.0249 O   0  0  0  1  0  0  0  0  0  0  0  0
    6.7608   -4.1775    4.2462 N   0  0  0  1  0  0  0  0  0  0  0  0
    2.9834   -3.0460    1.3427 N   0  0  0  1  0  0  0  0  0  0  0  0
    4.8726   -3.5532    2.8160 C   0  0  0  1  0  0  0  0  0  0  0  0
    6.2638   -4.1891    2.8645 C   0  0  0  1  0  0  0  0  0  0  0  0
    4.9554   -2.1156    3.3364 C   0  0  0  1  0  0  0  0  0  0  0  0
    5.5213   -2.1279    4.7592 C   0  0  0  1  0  0  0  0  0  0  0  0
    6.8937   -2.8050    4.7513 C   0  0  0  1  0  0  0  0  0  0  0  0
    4.3644   -3.5457    1.3729 C   0  0  0  1  0  0  0  0  0  0  0  0
    8.0333   -4.9036    4.3541 C   0  0  0  1  0  0  0  0  0  0  0  0
    8.3927   -5.0862    5.8300 C   0  0  0  1  0  0  0  0  0  0  0  0
    2.5425   -2.8000   -0.0368 C   0  0  0  1  0  0  0  0  0  0  0  0
    2.0732   -3.9726    2.0289 C   0  0  0  1  0  0  0  0  0  0  0  0
    9.6981   -5.8311    5.9407 C   0  0  0  1  0  0  0  0  0  0  0  0
    1.2274   -2.0643   -0.0203 C   0  0  0  1  0  0  0  0  0  0  0  0
   10.8909   -5.1331    5.9752 C   0  0  0  1  0  0  0  0  0  0  0  0
    9.7015   -7.2116    6.0134 C   0  0  0  1  0  0  0  0  0  0  0  0
    1.2105   -0.6820   -0.0132 C   0  0  0  1  0  0  0  0  0  0  0  0
    0.0405   -2.7733   -0.0181 C   0  0  0  1  0  0  0  0  0  0  0  0
    0.0021   -0.0041    0.0020 C   0  0  0  1  0  0  0  0  0  0  0  0
   12.0886   -5.8151    6.0766 C   0  0  0  1  0  0  0  0  0  0  0  0
   10.8979   -7.8958    6.1153 C   0  0  0  1  0  0  0  0  0  0  0  0
   -1.1685   -2.1031   -0.0029 C   0  0  0  1  0  0  0  0  0  0  0  0
   -1.1925   -0.7177    0.0101 C   0  0  0  1  0  0  0  0  0  0  0  0
   12.0935   -7.1980    6.1442 C   0  0  0  1  0  0  0  0  0  0  0  0
    1.2479    2.0217    0.0010 C   0  0  0  1  0  0  0  0  0  0  0  0
   -3.5667   -0.8544    0.0325 C   0  0  0  1  0  0  0  0  0  0  0  0
    4.1882   -4.1274    3.4405 H   0  0  0  1  0  0  0  0  0  0  0  0
    6.9444   -3.6225    2.2290 H   0  0  0  1  0  0  0  0  0  0  0  0
    6.2057   -5.2175    2.5080 H   0  0  0  1  0  0  0  0  0  0  0  0
    5.6095   -1.5311    2.6893 H   0  0  0  1  0  0  0  0  0  0  0  0
    3.9593   -1.6731    3.3444 H   0  0  0  1  0  0  0  0  0  0  0  0
    5.6227   -1.1041    5.1194 H   0  0  0  1  0  0  0  0  0  0  0  0
    4.8470   -2.6796    5.4142 H   0  0  0  1  0  0  0  0  0  0  0  0
    7.2930   -2.8282    5.7652 H   0  0  0  1  0  0  0  0  0  0  0  0
    7.5713   -2.2449    4.1069 H   0  0  0  1  0  0  0  0  0  0  0  0
    4.3930   -4.5590    0.9723 H   0  0  0  1  0  0  0  0  0  0  0  0
    4.9985   -2.8977    0.7678 H   0  0  0  1  0  0  0  0  0  0  0  0
    7.9355   -5.8804    3.8804 H   0  0  0  1  0  0  0  0  0  0  0  0
    8.8191   -4.3355    3.8563 H   0  0  0  1  0  0  0  0  0  0  0  0
    8.4906   -4.1094    6.3037 H   0  0  0  1  0  0  0  0  0  0  0  0
    7.6069   -5.6543    6.3278 H   0  0  0  1  0  0  0  0  0  0  0  0
    3.2891   -2.1980   -0.5549 H   0  0  0  1  0  0  0  0  0  0  0  0
    2.4201   -3.7515   -0.5543 H   0  0  0  1  0  0  0  0  0  0  0  0
    2.3824   -4.0827    3.0683 H   0  0  0  1  0  0  0  0  0  0  0  0
    1.0576   -3.5786    1.9917 H   0  0  0  1  0  0  0  0  0  0  0  0
    2.1042   -4.9442    1.5358 H   0  0  0  1  0  0  0  0  0  0  0  0
   10.8868   -4.0543    5.9225 H   0  0  0  1  0  0  0  0  0  0  0  0
    8.7688   -7.7556    5.9908 H   0  0  0  1  0  0  0  0  0  0  0  0
    2.1390   -0.1305   -0.0191 H   0  0  0  1  0  0  0  0  0  0  0  0
    0.0579   -3.8531   -0.0285 H   0  0  0  1  0  0  0  0  0  0  0  0
   13.0203   -5.2696    6.1029 H   0  0  0  1  0  0  0  0  0  0  0  0
   10.9004   -8.9743    6.1717 H   0  0  0  1  0  0  0  0  0  0  0  0
   -2.0943   -2.6593   -0.0016 H   0  0  0  1  0  0  0  0  0  0  0  0
    1.8173    1.7317    0.8840 H   0  0  0  1  0  0  0  0  0  0  0  0
    1.8003    1.7413   -0.8958 H   0  0  0  1  0  0  0  0  0  0  0  0
    1.0905    3.1003    0.0083 H   0  0  0  1  0  0  0  0  0  0  0  0
   -3.5901   -1.4790   -0.8605 H   0  0  0  1  0  0  0  0  0  0  0  0
   -3.5728   -1.4880    0.9194 H   0  0  0  1  0  0  0  0  0  0  0  0
   -4.4417   -0.2045    0.0442 H   0  0  0  1  0  0  0  0  0  0  0  0
  1 27  1  0  0  0  0
  2 22  1  0  0  0  0
  2 28  1  0  0  0  0
  3 26  1  0  0  0  0
  3 29  1  0  0  0  0
  4  7  1  0  0  0  0
  4 10  1  0  0  0  0
  4 12  1  0  0  0  0
  5 11  1  0  0  0  0
  5 14  1  0  0  0  0
  5 15  1  0  0  0  0
  6  7  1  0  0  0  0
  6  8  1  0  0  0  0
  6 11  1  0  0  0  0
  6 30  1  0  0  0  0
  7 31  1  0  0  0  0
  7 32  1  0  0  0  0
  8  9  1  0  0  0  0
  8 33  1  0  0  0  0
  8 34  1  0  0  0  0
  9 10  1  0  0  0  0
  9 35  1  0  0  0  0
  9 36  1  0  0  0  0
 10 37  1  0  0  0  0
 10 38  1  0  0  0  0
 11 39  1  0  0  0  0
 11 40  1  0  0  0  0
 12 13  1  0  0  0  0
 12 41  1  0  0  0  0
 12 42  1  0  0  0  0
 13 16  1  0  0  0  0
 13 43  1  0  0  0  0
 13 44  1  0  0  0  0
 14 17  1  0  0  0  0
 14 45  1  0  0  0  0
 14 46  1  0  0  0  0
 15 47  1  0  0  0  0
 15 48  1  0  0  0  0
 15 49  1  0  0  0  0
 16 18  4  0  0  0  0
 16 19  4  0  0  0  0
 17 20  4  0  0  0  0
 17 21  4  0  0  0  0
 18 23  4  0  0  0  0
 18 50  1  0  0  0  0
 19 24  4  0  0  0  0
 19 51  1  0  0  0  0
 20 22  4  0  0  0  0
 20 52  1  0  0  0  0
 21 25  4  0  0  0  0
 21 53  1  0  0  0  0
 22 26  4  0  0  0  0
 23 27  4  0  0  0  0
 23 54  1  0  0  0  0
 24 27  4  0  0  0  0
 24 55  1  0  0  0  0
 25 26  4  0  0  0  0
 25 56  1  0  0  0  0
 28 57  1  0  0  0  0
 28 58  1  0  0  0  0
 28 59  1  0  0  0  0
 29 60  1  0  0  0  0
 29 61  1  0  0  0  0
 29 62  1  0  0  0  0
M  END
> <Activity>
0.01

> <Mapped(file=2032.csv.activities,property=Cached(PUBCHEM_COMPOUND_CID))>
100

> <MatchIndices>
148 

> <PUBCHEM_ATOM_DEF_STEREO_COUNT>
0

> <PUBCHEM_ATOM_UDEF_STEREO_COUNT>
1

> <PUBCHEM_BONDANNOTATIONS>
16  18  8
16  19  8
17  20  8
17  21  8
18  23  8
19  24  8
20  22  8
21  25  8
22  26  8
23  27  8
24  27  8
25  26  8
6  11  3

> <PUBCHEM_BOND_DEF_STEREO_COUNT>
0

> <PUBCHEM_BOND_UDEF_STEREO_COUNT>
0

> <PUBCHEM_CACTVS_COMPLEXITY>
458

> <PUBCHEM_CACTVS_HBOND_ACCEPTOR>
5

> <PUBCHEM_CACTVS_HBOND_DONOR>
0

> <PUBCHEM_CACTVS_ROTATABLE_BOND>
9

> <PUBCHEM_CACTVS_SUBSKEYS>
AAADcfB7MQAAAAAAAAAAAAAAAAAAAAAAAAA8YIAAAAAAAAABQAAAHwAAAAAADQTBmA4yBoMABACAAiBCAACCCAAgIAAIiAAOjIgNJiKE8RuEMCpkwBGKqAew0JIOIAABAAAAQABAAAIAAACAAAAAAAAAAA==

> <PUBCHEM_CACTVS_TAUTO_COUNT>
1

> <PUBCHEM_CACTVS_TPSA>
24.9

> <PUBCHEM_COMPONENT_COUNT>
1

> <PUBCHEM_COMPOUND_CANONICALIZED>
1

> <PUBCHEM_COMPOUND_CID>
23724050

> <PUBCHEM_COORDINATE_TYPE>
1
5
255

> <PUBCHEM_EXACT_MASS>
400.252607

> <PUBCHEM_HEAVY_ATOM_COUNT>
29

> <PUBCHEM_ISOTOPIC_ATOM_COUNT>
0

> <PUBCHEM_IUPAC_CAS_NAME>
N-[(3,4-dimethoxyphenyl)methyl]-1-[1-[2-(4-fluorophenyl)ethyl]-3-piperidinyl]-N-methylmethanamine

> <PUBCHEM_IUPAC_INCHI>
InChI=1S/C24H33FN2O2/c1-26(16-20-8-11-23(28-2)24(15-20)29-3)17-21-5-4-13-27(18-21)14-12-19-6-9-22(25)10-7-19/h6-11,15,21H,4-5,12-14,16-18H2,1-3H3

> <PUBCHEM_IUPAC_INCHIKEY>
WCRABKVSJIARSP-UHFFFAOYSA-N

> <PUBCHEM_IUPAC_NAME>
N-[(3,4-dimethoxyphenyl)methyl]-1-[1-[2-(4-fluorophenyl)ethyl]piperidin-3-yl]-N-methylmethanamine

> <PUBCHEM_IUPAC_OPENEYE_NAME>
N-[(3,4-dimethoxyphenyl)methyl]-1-[1-[2-(4-fluorophenyl)ethyl]-3-piperidyl]-N-methyl-methanamine

> <PUBCHEM_IUPAC_SYSTEMATIC_NAME>
N-[(3,4-dimethoxyphenyl)methyl]-1-[1-[2-(4-fluorophenyl)ethyl]piperidin-3-yl]-N-methyl-methanamine

> <PUBCHEM_IUPAC_TRADITIONAL_NAME>
[1-[2-(4-fluorophenyl)ethyl]-3-piperidyl]methyl-methyl-veratryl-amine

> <PUBCHEM_MOLECULAR_FORMULA>
C24H33FN2O2

> <PUBCHEM_MOLECULAR_WEIGHT>
400.529423

> <PUBCHEM_MONOISOTOPIC_WEIGHT>
400.252607

> <PUBCHEM_OPENEYE_CAN_SMILES>
CN(CC1CCCN(C1)CCC2=CC=C(C=C2)F)CC3=CC(=C(C=C3)OC)OC

> <PUBCHEM_OPENEYE_ISO_SMILES>
CN(CC1CCCN(C1)CCC2=CC=C(C=C2)F)CC3=CC(=C(C=C3)OC)OC

> <PUBCHEM_TOTAL_CHARGE>
0

> <PUBCHEM_XLOGP3_AA>
4.5

$$$$
Largest isolated from Written by BCL::WriteToMDL,2215920
JMcorina  04211410293D 1   1.00000     0.00000 
CORINA 3.49 0026  01.06.2011
 40 41  0  0  0  0  0  0  0  0999 V2000
    6.0626    3.3022   -0.0371 Cl  0  0  0  1  0  0  0  0  0  0  0  0
   -0.0225    1.8097    0.0120 S   0  0  0  1  0  0  0  0  0  0  0  0
   -2.8015   -4.4391    2.2686 O   0  0  0  1  0  0  0  0  0  0  0  0
   -2.8384   -4.3411   -2.2276 O   0  0  0  1  0  0  0  0  0  0  0  0
   -2.8281   -4.0579    0.0073 N   0  0  0  1  0  0  0  0  0  0  0  0
   -2.7978   -6.1219   -0.8377 N   0  0  0  1  0  0  0  0  0  0  0  0
   -2.7913   -6.2557    0.6293 C   0  0  0  1  0  0  0  0  0  0  0  0
   -2.8072   -4.8209    1.1180 C   0  0  0  1  0  0  0  0  0  0  0  0
   -2.8479   -2.5931    0.0153 C   0  0  0  1  0  0  0  0  0  0  0  0
   -1.4126   -2.0635    0.0045 C   0  0  0  1  0  0  0  0  0  0  0  0
   -2.8227   -4.8034   -1.1037 C   0  0  0  1  0  0  0  0  0  0  0  0
   -4.0348   -7.0086    1.1067 C   0  0  0  1  0  0  0  0  0  0  0  0
   -1.5186   -6.9626    1.0997 C   0  0  0  1  0  0  0  0  0  0  0  0
   -1.4333   -0.5336    0.0129 C   0  0  0  1  0  0  0  0  0  0  0  0
    0.0021   -0.0041    0.0020 C   0  0  0  1  0  0  0  0  0  0  0  0
    1.6887    2.2294   -0.0021 C   0  0  0  1  0  0  0  0  0  0  0  0
    2.0785    3.5632    0.0013 C   0  0  0  1  0  0  0  0  0  0  0  0
    2.6513    1.2273   -0.0109 C   0  0  0  1  0  0  0  0  0  0  0  0
    3.4203    3.8890   -0.0092 C   0  0  0  1  0  0  0  0  0  0  0  0
    3.9916    1.5593   -0.0214 C   0  0  0  1  0  0  0  0  0  0  0  0
    4.3766    2.8887   -0.0233 C   0  0  0  1  0  0  0  0  0  0  0  0
   -3.3751   -2.2320   -0.8677 H   0  0  0  1  0  0  0  0  0  0  0  0
   -3.3581   -2.2415    0.9121 H   0  0  0  1  0  0  0  0  0  0  0  0
   -2.7907   -6.8438   -1.4856 H   0  0  0  1  0  0  0  0  0  0  0  0
   -0.8854   -2.4246    0.8875 H   0  0  0  1  0  0  0  0  0  0  0  0
   -0.9024   -2.4150   -0.8923 H   0  0  0  1  0  0  0  0  0  0  0  0
   -4.0371   -8.0124    0.6819 H   0  0  0  1  0  0  0  0  0  0  0  0
   -4.0242   -7.0745    2.1946 H   0  0  0  1  0  0  0  0  0  0  0  0
   -4.9288   -6.4753    0.7836 H   0  0  0  1  0  0  0  0  0  0  0  0
   -0.6464   -6.3970    0.7717 H   0  0  0  1  0  0  0  0  0  0  0  0
   -1.5207   -7.0288    2.1877 H   0  0  0  1  0  0  0  0  0  0  0  0
   -1.4819   -7.9657    0.6748 H   0  0  0  1  0  0  0  0  0  0  0  0
   -1.9605   -0.1726   -0.8702 H   0  0  0  1  0  0  0  0  0  0  0  0
   -1.9435   -0.1821    0.9097 H   0  0  0  1  0  0  0  0  0  0  0  0
    0.5123   -0.3556   -0.8948 H   0  0  0  1  0  0  0  0  0  0  0  0
    0.5293   -0.3651    0.8851 H   0  0  0  1  0  0  0  0  0  0  0  0
    1.3327    4.3443    0.0119 H   0  0  0  1  0  0  0  0  0  0  0  0
    2.3514    0.1897   -0.0091 H   0  0  0  1  0  0  0  0  0  0  0  0
    3.7239    4.9255   -0.0069 H   0  0  0  1  0  0  0  0  0  0  0  0
    4.7402    0.7809   -0.0282 H   0  0  0  1  0  0  0  0  0  0  0  0
  1 21  1  0  0  0  0
  2 15  1  0  0  0  0
  2 16  1  0  0  0  0
  3  8  2  0  0  0  0
  4 11  2  0  0  0  0
  5  8  1  0  0  0  0
  5  9  1  0  0  0  0
  5 11  1  0  0  0  0
  6  7  1  0  0  0  0
  6 11  1  0  0  0  0
  6 24  1  0  0  0  0
  7  8  1  0  0  0  0
  7 12  1  0  0  0  0
  7 13  1  0  0  0  0
  9 10  1  0  0  0  0
  9 22  1  0  0  0  0
  9 23  1  0  0  0  0
 10 14  1  0  0  0  0
 10 25  1  0  0  0  0
 10 26  1  0  0  0  0
 12 27  1  0  0  0  0
 12 28  1  0  0  0  0
 12 29  1  0  0  0  0
 13 30  1  0  0  0  0
 13 31  1  0  0  0  0
 13 32  1  0  0  0  0
 14 15  1  0  0  0  0
 14 33  1  0  0  0  0
 14 34  1  0  0  0  0
 15 35  1  0  0  0  0
 15 36  1  0  0  0  0
 16 17  4  0  0  0  0
 16 18  4  0  0  0  0
 17 19  4  0  0  0  0
 17 37  1  0  0  0  0
 18 20  4  0  0  0  0
 18 38  1  0  0  0  0
 19 21  4  0  0  0  0
 19 39  1  0  0  0  0
 20 21  4  0  0  0  0
 20 40  1  0  0  0  0
M  END
> <Activity>
0.01

> <Mapped(file=2032.csv.activities,property=Cached(PUBCHEM_COMPOUND_CID))>
100

> <MatchIndices>
84 

> <PUBCHEM_ATOM_DEF_STEREO_COUNT>
0

> <PUBCHEM_ATOM_UDEF_STEREO_COUNT>
0

> <PUBCHEM_BONDANNOTATIONS>
16  17  8
16  18  8
17  19  8
18  20  8
19  21  8
20  21  8

> <PUBCHEM_BOND_DEF_STEREO_COUNT>
0

> <PUBCHEM_BOND_UDEF_STEREO_COUNT>
0

> <PUBCHEM_CACTVS_COMPLEXITY>
395

> <PUBCHEM_CACTVS_HBOND_ACCEPTOR>
3

> <PUBCHEM_CACTVS_HBOND_DONOR>
1

> <PUBCHEM_CACTVS_ROTATABLE_BOND>
6

> <PUBCHEM_CACTVS_SUBSKEYS>
AAADceBzMABEAAAAAAAAAAAAAAAAAWAAAAAwAAAAAAAAAAABAAAAHgYQAAAADIrF0CSzAYPAAAiIACFSEAACAAAgDRAIiBmIAoiIYCKhkzCUIAAolyKoiAcAAAAAAAIAAAAAAAAABAAAAAAAAAAAAAAAAA==

> <PUBCHEM_CACTVS_TAUTO_COUNT>
2

> <PUBCHEM_CACTVS_TPSA>
74.7

> <PUBCHEM_COMPONENT_COUNT>
1

> <PUBCHEM_COMPOUND_CANONICALIZED>
1

> <PUBCHEM_COMPOUND_CID>
2215920

> <PUBCHEM_COORDINATE_TYPE>
1
5
255

> <PUBCHEM_EXACT_MASS>
326.085577

> <PUBCHEM_HEAVY_ATOM_COUNT>
21

> <PUBCHEM_ISOTOPIC_ATOM_COUNT>
0

> <PUBCHEM_IUPAC_CAS_NAME>
3-[4-[(4-chlorophenyl)thio]butyl]-5,5-dimethylimidazolidine-2,4-dione

> <PUBCHEM_IUPAC_INCHI>
InChI=1S/C15H19ClN2O2S/c1-15(2)13(19)18(14(20)17-15)9-3-4-10-21-12-7-5-11(16)6-8-12/h5-8H,3-4,9-10H2,1-2H3,(H,17,20)

> <PUBCHEM_IUPAC_INCHIKEY>
NZRDPGZJCGVICL-UHFFFAOYSA-N

> <PUBCHEM_IUPAC_NAME>
3-[4-(4-chlorophenyl)sulfanylbutyl]-5,5-dimethylimidazolidine-2,4-dione

> <PUBCHEM_IUPAC_OPENEYE_NAME>
3-[4-(4-chlorophenyl)sulfanylbutyl]-5,5-dimethyl-imidazolidine-2,4-dione

> <PUBCHEM_IUPAC_SYSTEMATIC_NAME>
3-[4-(4-chlorophenyl)sulfanylbutyl]-5,5-dimethyl-imidazolidine-2,4-dione

> <PUBCHEM_IUPAC_TRADITIONAL_NAME>
3-[4-[(4-chlorophenyl)thio]butyl]-5,5-dimethyl-hydantoin

> <PUBCHEM_MOLECULAR_FORMULA>
C15H19ClN2O2S

> <PUBCHEM_MOLECULAR_WEIGHT>
326.84156

> <PUBCHEM_MONOISOTOPIC_WEIGHT>
326.085577

> <PUBCHEM_OPENEYE_CAN_SMILES>
CC1(C(=O)N(C(=O)N1)CCCCSC2=CC=C(C=C2)Cl)C

> <PUBCHEM_OPENEYE_ISO_SMILES>
CC1(C(=O)N(C(=O)N1)CCCCSC2=CC=C(C=C2)Cl)C

> <PUBCHEM_TOTAL_CHARGE>
0

> <PUBCHEM_XLOGP3_AA>
3.3

$$$$
Largest isolated from Written by BCL::WriteToMDL,6470043
JMcorina  04211410293D 1   1.00000     0.00000 
CORINA 3.49 0026  01.06.2011
 43 44  0  0  0  0  0  0  0  0999 V2000
  -11.1858   -0.4538   -3.0887 Cl  0  0  0  1  0  0  0  0  0  0  0  0
   -0.5640    2.3414   -0.0653 O   0  0  0  1  0  0  0  0  0  0  0  0
   -5.7203   -1.5032   -1.2472 O   0  0  0  1  0  0  0  0  0  0  0  0
   -3.6229   -1.5324    0.3038 O   0  0  0  1  0  0  0  0  0  0  0  0
   -2.6516    0.3163   -0.4448 N   0  0  0  1  0  0  0  0  0  0  0  0
   -0.3255    0.9190    0.0109 C   0  0  0  1  0  0  0  0  0  0  0  0
    0.8443    0.7678    1.0084 C   0  0  0  1  0  0  0  0  0  0  0  0
   -1.5689    0.1978    0.5350 C   0  0  0  1  0  0  0  0  0  0  0  0
    1.5662    2.1327    0.9500 C   0  0  0  1  0  0  0  0  0  0  0  0
    0.7471    2.9470   -0.0758 C   0  0  0  1  0  0  0  0  0  0  0  0
   -2.0063    0.8309    1.8574 C   0  0  0  1  0  0  0  0  0  0  0  0
   -3.6346   -0.6051   -0.4777 C   0  0  0  1  0  0  0  0  0  0  0  0
   -4.7483   -0.4831   -1.4856 C   0  0  0  1  0  0  0  0  0  0  0  0
   -4.1786   -0.6413   -2.8968 C   0  0  0  1  0  0  0  0  0  0  0  0
   -6.9876   -1.2598   -1.6741 C   0  0  0  1  0  0  0  0  0  0  0  0
   -8.0055   -2.1522   -1.3720 C   0  0  0  1  0  0  0  0  0  0  0  0
   -7.2657   -0.1154   -2.4076 C   0  0  0  1  0  0  0  0  0  0  0  0
   -9.2930   -1.9031   -1.8068 C   0  0  0  1  0  0  0  0  0  0  0  0
   -7.7071   -3.3931   -0.5706 C   0  0  0  1  0  0  0  0  0  0  0  0
   -8.5542    0.1301   -2.8405 C   0  0  0  1  0  0  0  0  0  0  0  0
   -9.5673   -0.7644   -2.5430 C   0  0  0  1  0  0  0  0  0  0  0  0
   -0.0433    0.5286   -0.9669 H   0  0  0  1  0  0  0  0  0  0  0  0
    0.4673    0.5778    2.0133 H   0  0  0  1  0  0  0  0  0  0  0  0
    1.5141   -0.0323    0.6931 H   0  0  0  1  0  0  0  0  0  0  0  0
   -1.3376   -0.8553    0.6953 H   0  0  0  1  0  0  0  0  0  0  0  0
    1.5460    2.6174    1.9261 H   0  0  0  1  0  0  0  0  0  0  0  0
    2.5928    2.0073    0.6059 H   0  0  0  1  0  0  0  0  0  0  0  0
    1.1938    2.8676   -1.0669 H   0  0  0  1  0  0  0  0  0  0  0  0
    0.6852    3.9911    0.2310 H   0  0  0  1  0  0  0  0  0  0  0  0
   -2.8921    0.3171    2.2308 H   0  0  0  1  0  0  0  0  0  0  0  0
   -1.2008    0.7427    2.5864 H   0  0  0  1  0  0  0  0  0  0  0  0
   -2.2376    1.8839    1.6971 H   0  0  0  1  0  0  0  0  0  0  0  0
   -2.6609    1.0580   -1.0699 H   0  0  0  1  0  0  0  0  0  0  0  0
   -5.2182    0.4958   -1.3911 H   0  0  0  1  0  0  0  0  0  0  0  0
   -4.9841   -0.5531   -3.6258 H   0  0  0  1  0  0  0  0  0  0  0  0
   -3.4372    0.1368   -3.0786 H   0  0  0  1  0  0  0  0  0  0  0  0
   -3.7086   -1.6202   -2.9913 H   0  0  0  1  0  0  0  0  0  0  0  0
   -6.4754    0.5831   -2.6396 H   0  0  0  1  0  0  0  0  0  0  0  0
  -10.0858   -2.5980   -1.5721 H   0  0  0  1  0  0  0  0  0  0  0  0
   -7.8285   -3.1778    0.4911 H   0  0  0  1  0  0  0  0  0  0  0  0
   -8.3947   -4.1874   -0.8612 H   0  0  0  1  0  0  0  0  0  0  0  0
   -6.6824   -3.7115   -0.7618 H   0  0  0  1  0  0  0  0  0  0  0  0
   -8.7711    1.0210   -3.4112 H   0  0  0  1  0  0  0  0  0  0  0  0
  1 21  1  0  0  0  0
  2  6  1  0  0  0  0
  2 10  1  0  0  0  0
  3 13  1  0  0  0  0
  3 15  1  0  0  0  0
  4 12  2  0  0  0  0
  5  8  1  0  0  0  0
  5 12  1  0  0  0  0
  5 33  1  0  0  0  0
  6  7  1  0  0  0  0
  6  8  1  0  0  0  0
  6 22  1  0  0  0  0
  7  9  1  0  0  0  0
  7 23  1  0  0  0  0
  7 24  1  0  0  0  0
  8 11  1  0  0  0  0
  8 25  1  0  0  0  0
  9 10  1  0  0  0  0
  9 26  1  0  0  0  0
  9 27  1  0  0  0  0
 10 28  1  0  0  0  0
 10 29  1  0  0  0  0
 11 30  1  0  0  0  0
 11 31  1  0  0  0  0
 11 32  1  0  0  0  0
 12 13  1  0  0  0  0
 13 14  1  0  0  0  0
 13 34  1  0  0  0  0
 14 35  1  0  0  0  0
 14 36  1  0  0  0  0
 14 37  1  0  0  0  0
 15 16  4  0  0  0  0
 15 17  4  0  0  0  0
 16 18  4  0  0  0  0
 16 19  1  0  0  0  0
 17 20  4  0  0  0  0
 17 38  1  0  0  0  0
 18 21  4  0  0  0  0
 18 39  1  0  0  0  0
 19 40  1  0  0  0  0
 19 41  1  0  0  0  0
 19 42  1  0  0  0  0
 20 21  4  0  0  0  0
 20 43  1  0  0  0  0
M  END
> <Activity>
0.01

> <Mapped(file=2032.csv.activities,property=Cached(PUBCHEM_COMPOUND_CID))>
100

> <MatchIndices>
187 

> <PUBCHEM_ATOM_DEF_STEREO_COUNT>
0

> <PUBCHEM_ATOM_UDEF_STEREO_COUNT>
3

> <PUBCHEM_BONDANNOTATIONS>
13  14  3
15  16  8
15  17  8
16  18  8
17  20  8
18  21  8
20  21  8
6  7  3
8  11  3

> <PUBCHEM_BOND_DEF_STEREO_COUNT>
0

> <PUBCHEM_BOND_UDEF_STEREO_COUNT>
0

> <PUBCHEM_CACTVS_COMPLEXITY>
352

> <PUBCHEM_CACTVS_HBOND_ACCEPTOR>
3

> <PUBCHEM_CACTVS_HBOND_DONOR>
1

> <PUBCHEM_CACTVS_ROTATABLE_BOND>
5

> <PUBCHEM_CACTVS_SUBSKEYS>
AAADceB6MAAEAAAAAAAAAAAAAAAAASAAAAAwAAAAAAAAAAABAAAAHgIQAAAADD7hmCYyBoLABACIAiFSEAICCAAgJQAIiIFOCogOJiKFsx6HOCCk1hGYqAeQ0CMOACAAIAAIAAAAQABAABAAAAAAAAAAAA==

> <PUBCHEM_CACTVS_TAUTO_COUNT>
2

> <PUBCHEM_CACTVS_TPSA>
47.6

> <PUBCHEM_COMPONENT_COUNT>
1

> <PUBCHEM_COMPOUND_CANONICALIZED>
1

> <PUBCHEM_COMPOUND_CID>
6470043

> <PUBCHEM_COORDINATE_TYPE>
1
5
255

> <PUBCHEM_EXACT_MASS>
311.128821

> <PUBCHEM_HEAVY_ATOM_COUNT>
21

> <PUBCHEM_ISOTOPIC_ATOM_COUNT>
0

> <PUBCHEM_IUPAC_CAS_NAME>
2-(4-chloro-2-methylphenoxy)-N-[1-(2-oxolanyl)ethyl]propanamide

> <PUBCHEM_IUPAC_INCHI>
InChI=1S/C16H22ClNO3/c1-10-9-13(17)6-7-14(10)21-12(3)16(19)18-11(2)15-5-4-8-20-15/h6-7,9,11-12,15H,4-5,8H2,1-3H3,(H,18,19)

> <PUBCHEM_IUPAC_INCHIKEY>
XKCOALSLNAEUPI-UHFFFAOYSA-N

> <PUBCHEM_IUPAC_NAME>
2-(4-chloro-2-methylphenoxy)-N-[1-(oxolan-2-yl)ethyl]propanamide

> <PUBCHEM_IUPAC_OPENEYE_NAME>
2-(4-chloro-2-methyl-phenoxy)-N-(1-tetrahydrofuran-2-ylethyl)propanamide

> <PUBCHEM_IUPAC_SYSTEMATIC_NAME>
2-(4-chloranyl-2-methyl-phenoxy)-N-[1-(oxolan-2-yl)ethyl]propanamide

> <PUBCHEM_IUPAC_TRADITIONAL_NAME>
2-(4-chloro-2-methyl-phenoxy)-N-[1-(tetrahydrofuryl)ethyl]propionamide

> <PUBCHEM_MOLECULAR_FORMULA>
C16H22ClNO3

> <PUBCHEM_MOLECULAR_WEIGHT>
311.80378

> <PUBCHEM_MONOISOTOPIC_WEIGHT>
311.128821

> <PUBCHEM_OPENEYE_CAN_SMILES>
CC1=C(C=CC(=C1)Cl)OC(C)C(=O)NC(C)C2CCCO2

> <PUBCHEM_OPENEYE_ISO_SMILES>
CC1=C(C=CC(=C1)Cl)OC(C)C(=O)NC(C)C2CCCO2

> <PUBCHEM_TOTAL_CHARGE>
0

> <PUBCHEM_XLOGP3_AA>
3.5

$$$$
Largest isolated from Written by BCL::WriteToMDL,1478763
JMcorina  04211410293D 1   1.00000     0.00000 
CORINA 3.49 0026  01.06.2011
 38 39  0  0  0  0  0  0  0  0999 V2000
   -0.0218    1.7577    0.0117 S   0  0  0  1  0  0  0  0  0  0  0  0
   -0.4173   -4.5075   -0.6053 F   0  0  0  1  0  0  0  0  0  0  0  0
   -0.0735   -3.3980   -2.5725 F   0  0  0  1  0  0  0  0  0  0  0  0
   -2.1173   -3.3131   -1.5552 F   0  0  0  1  0  0  0  0  0  0  0  0
    5.6898    3.1586   -0.0364 F   0  0  0  1  0  0  0  0  0  0  0  0
   -0.3386   -0.1939   -3.2747 O   0  0  0  1  0  0  0  0  0  0  0  0
   -2.0213    0.4175   -4.5701 O   0  0  0  1  0  0  0  0  0  0  0  0
    0.5693   -0.8057    0.9413 N   0  0  0  1  0  0  0  0  0  0  0  0
    0.3612   -2.1350    0.5520 N   0  0  0  1  0  0  0  0  0  0  0  0
   -0.5455   -0.8125   -0.9482 C   0  0  0  1  0  0  0  0  0  0  0  0
    0.0021   -0.0041    0.0020 C   0  0  0  1  0  0  0  0  0  0  0  0
   -0.3037   -2.1369   -0.5749 C   0  0  0  1  0  0  0  0  0  0  0  0
   -1.2812   -0.3588   -2.1826 C   0  0  0  1  0  0  0  0  0  0  0  0
   -0.7357   -3.3608   -1.3407 C   0  0  0  1  0  0  0  0  0  0  0  0
    1.2683   -0.3593    2.1489 C   0  0  0  1  0  0  0  0  0  0  0  0
    1.6894    2.1774   -0.0024 C   0  0  0  1  0  0  0  0  0  0  0  0
   -0.8368    0.2092   -4.4541 C   0  0  0  1  0  0  0  0  0  0  0  0
    0.0812    0.4021   -5.6335 C   0  0  0  1  0  0  0  0  0  0  0  0
    2.0788    3.5111    0.0011 C   0  0  0  1  0  0  0  0  0  0  0  0
    2.6516    1.1752   -0.0112 C   0  0  0  1  0  0  0  0  0  0  0  0
    3.4206    3.8375   -0.0100 C   0  0  0  1  0  0  0  0  0  0  0  0
    3.9921    1.5066   -0.0223 C   0  0  0  1  0  0  0  0  0  0  0  0
   -0.7336    0.8610   -6.8444 C   0  0  0  1  0  0  0  0  0  0  0  0
    4.3777    2.8368   -0.0251 C   0  0  0  1  0  0  0  0  0  0  0  0
   -1.7751    0.5920   -1.9823 H   0  0  0  1  0  0  0  0  0  0  0  0
   -2.0270   -1.1051   -2.4560 H   0  0  0  1  0  0  0  0  0  0  0  0
    2.3289   -0.2352    1.9299 H   0  0  0  1  0  0  0  0  0  0  0  0
    0.8518    0.5924    2.4790 H   0  0  0  1  0  0  0  0  0  0  0  0
    1.1444   -1.1028    2.9362 H   0  0  0  1  0  0  0  0  0  0  0  0
    0.8295    1.1570   -5.3919 H   0  0  0  1  0  0  0  0  0  0  0  0
    0.5775   -0.5402   -5.8656 H   0  0  0  1  0  0  0  0  0  0  0  0
    1.3327    4.2919    0.0121 H   0  0  0  1  0  0  0  0  0  0  0  0
    2.3514    0.1378   -0.0091 H   0  0  0  1  0  0  0  0  0  0  0  0
    3.7237    4.8741   -0.0074 H   0  0  0  1  0  0  0  0  0  0  0  0
    4.7404    0.7279   -0.0292 H   0  0  0  1  0  0  0  0  0  0  0  0
   -1.4819    0.1062   -7.0860 H   0  0  0  1  0  0  0  0  0  0  0  0
   -1.2299    1.8034   -6.6124 H   0  0  0  1  0  0  0  0  0  0  0  0
   -0.0696    1.0006   -7.6975 H   0  0  0  1  0  0  0  0  0  0  0  0
  1 11  1  0  0  0  0
  1 16  1  0  0  0  0
  2 14  1  0  0  0  0
  3 14  1  0  0  0  0
  4 14  1  0  0  0  0
  5 24  1  0  0  0  0
  6 13  1  0  0  0  0
  6 17  1  0  0  0  0
  7 17  2  0  0  0  0
  8  9  4  0  0  0  0
  8 11  4  0  0  0  0
  8 15  1  0  0  0  0
  9 12  4  0  0  0  0
 10 11  4  0  0  0  0
 10 12  4  0  0  0  0
 10 13  1  0  0  0  0
 12 14  1  0  0  0  0
 13 25  1  0  0  0  0
 13 26  1  0  0  0  0
 15 27  1  0  0  0  0
 15 28  1  0  0  0  0
 15 29  1  0  0  0  0
 16 19  4  0  0  0  0
 16 20  4  0  0  0  0
 17 18  1  0  0  0  0
 18 23  1  0  0  0  0
 18 30  1  0  0  0  0
 18 31  1  0  0  0  0
 19 21  4  0  0  0  0
 19 32  1  0  0  0  0
 20 22  4  0  0  0  0
 20 33  1  0  0  0  0
 21 24  4  0  0  0  0
 21 34  1  0  0  0  0
 22 24  4  0  0  0  0
 22 35  1  0  0  0  0
 23 36  1  0  0  0  0
 23 37  1  0  0  0  0
 23 38  1  0  0  0  0
M  END
> <Activity>
0.01

> <Mapped(file=2032.csv.activities,property=Cached(PUBCHEM_COMPOUND_CID))>
100

> <MatchIndices>
119 

> <PUBCHEM_ATOM_DEF_STEREO_COUNT>
0

> <PUBCHEM_ATOM_UDEF_STEREO_COUNT>
0

> <PUBCHEM_BONDANNOTATIONS>
10  11  8
10  12  8
16  19  8
16  20  8
19  21  8
20  22  8
21  24  8
22  24  8
8  11  8
8  9  8
9  12  8

> <PUBCHEM_BOND_DEF_STEREO_COUNT>
0

> <PUBCHEM_BOND_UDEF_STEREO_COUNT>
0

> <PUBCHEM_CACTVS_COMPLEXITY>
430

> <PUBCHEM_CACTVS_HBOND_ACCEPTOR>
8

> <PUBCHEM_CACTVS_HBOND_DONOR>
0

> <PUBCHEM_CACTVS_ROTATABLE_BOND>
6

> <PUBCHEM_CACTVS_SUBSKEYS>
AAADccBzMcBAAAAAAAAAAAAAAAAAAWAAAAAwAAAAAAAAAAABwAAAHwQIAAAADAih3h4yiZIIBAiqAyTyTACSFABhiBAY2DkoTJgIJiLg8diGtAxmiABo6AcAAAAIAAAAAAAAAAAAAAAAAAAAAAAAAAAAAA==

> <PUBCHEM_CACTVS_TAUTO_COUNT>
1

> <PUBCHEM_CACTVS_TPSA>
69.4

> <PUBCHEM_COMPONENT_COUNT>
1

> <PUBCHEM_COMPOUND_CANONICALIZED>
1

> <PUBCHEM_COMPOUND_CID>
1478763

> <PUBCHEM_COORDINATE_TYPE>
1
5
255

> <PUBCHEM_EXACT_MASS>
362.071212

> <PUBCHEM_HEAVY_ATOM_COUNT>
24

> <PUBCHEM_ISOTOPIC_ATOM_COUNT>
0

> <PUBCHEM_IUPAC_CAS_NAME>
propanoic acid [5-[(4-fluorophenyl)thio]-1-methyl-3-(trifluoromethyl)-4-pyrazolyl]methyl ester

> <PUBCHEM_IUPAC_INCHI>
InChI=1S/C15H14F4N2O2S/c1-3-12(22)23-8-11-13(15(17,18)19)20-21(2)14(11)24-10-6-4-9(16)5-7-10/h4-7H,3,8H2,1-2H3

> <PUBCHEM_IUPAC_INCHIKEY>
UZISXOAOEYHJHI-UHFFFAOYSA-N

> <PUBCHEM_IUPAC_NAME>
[5-(4-fluorophenyl)sulfanyl-1-methyl-3-(trifluoromethyl)pyrazol-4-yl]methyl propanoate

> <PUBCHEM_IUPAC_OPENEYE_NAME>
[5-(4-fluorophenyl)sulfanyl-1-methyl-3-(trifluoromethyl)pyrazol-4-yl]methyl propanoate

> <PUBCHEM_IUPAC_SYSTEMATIC_NAME>
[5-(4-fluorophenyl)sulfanyl-1-methyl-3-(trifluoromethyl)pyrazol-4-yl]methyl propanoate

> <PUBCHEM_IUPAC_TRADITIONAL_NAME>
propionic acid [5-[(4-fluorophenyl)thio]-1-methyl-3-(trifluoromethyl)pyrazol-4-yl]methyl ester

> <PUBCHEM_MOLECULAR_FORMULA>
C15H14F4N2O2S

> <PUBCHEM_MOLECULAR_WEIGHT>
362.342473

> <PUBCHEM_MONOISOTOPIC_WEIGHT>
362.071212

> <PUBCHEM_OPENEYE_CAN_SMILES>
CCC(=O)OCC1=C(N(N=C1C(F)(F)F)C)SC2=CC=C(C=C2)F

> <PUBCHEM_OPENEYE_ISO_SMILES>
CCC(=O)OCC1=C(N(N=C1C(F)(F)F)C)SC2=CC=C(C=C2)F

> <PUBCHEM_TOTAL_CHARGE>
0

> <PUBCHEM_XLOGP3_AA>
3.8

$$$$
Largest isolated from Written by BCL::WriteToMDL,5664176
JMcorina  04211410293D 1   1.00000     0.00000 
CORINA 3.49 0026  01.06.2011
 38 39  0  0  0  0  0  0  0  0999 V2000
   -5.9554    5.7235   -1.0315 Cl  0  0  0  1  0  0  0  0  0  0  0  0
   -0.6961    2.3449   -1.4197 S   0  0  0  1  0  0  0  0  0  0  0  0
    1.5013    1.0073   -2.9188 O   0  0  0  1  0  0  0  0  0  0  0  0
   -1.0988    0.9976   -1.6239 O   0  0  0  1  0  0  0  0  0  0  0  0
    0.1251    2.7547   -0.3348 O   0  0  0  1  0  0  0  0  0  0  0  0
    0.0868    2.8135   -2.8017 N   0  0  0  1  0  0  0  0  0  0  0  0
    1.7233    1.1569   -1.5151 C   0  0  0  1  0  0  0  0  0  0  0  0
    0.7211    1.9345   -3.5192 C   0  0  0  1  0  0  0  0  0  0  0  0
    0.5895    1.9484   -4.9933 C   0  0  0  1  0  0  0  0  0  0  0  0
   -2.1756    3.2955   -1.3106 C   0  0  0  1  0  0  0  0  0  0  0  0
    2.6242    0.0247   -1.0177 C   0  0  0  1  0  0  0  0  0  0  0  0
    2.4001    2.5025   -1.2463 C   0  0  0  1  0  0  0  0  0  0  0  0
   -3.3421    2.8265   -1.8854 C   0  0  0  1  0  0  0  0  0  0  0  0
   -2.1709    4.5073   -0.6454 C   0  0  0  1  0  0  0  0  0  0  0  0
   -0.2145    2.9035   -5.6156 C   0  0  0  1  0  0  0  0  0  0  0  0
    1.2733    1.0101   -5.7664 C   0  0  0  1  0  0  0  0  0  0  0  0
   -4.5031    3.5716   -1.8002 C   0  0  0  1  0  0  0  0  0  0  0  0
   -3.3314    5.2529   -0.5587 C   0  0  0  1  0  0  0  0  0  0  0  0
   -0.3332    2.9113   -6.9903 C   0  0  0  1  0  0  0  0  0  0  0  0
    1.1464    1.0283   -7.1402 C   0  0  0  1  0  0  0  0  0  0  0  0
   -4.4977    4.7870   -1.1391 C   0  0  0  1  0  0  0  0  0  0  0  0
    0.3427    1.9742   -7.7511 C   0  0  0  1  0  0  0  0  0  0  0  0
    0.7688    1.1190   -0.9902 H   0  0  0  1  0  0  0  0  0  0  0  0
    1.6473    3.2371   -0.9602 H   0  0  0  1  0  0  0  0  0  0  0  0
    3.1237    2.3905   -0.4389 H   0  0  0  1  0  0  0  0  0  0  0  0
    3.5787    0.0625   -1.5425 H   0  0  0  1  0  0  0  0  0  0  0  0
    2.7935    0.1388    0.0530 H   0  0  0  1  0  0  0  0  0  0  0  0
    2.1421   -0.9340   -1.2091 H   0  0  0  1  0  0  0  0  0  0  0  0
    2.9114    2.8387   -2.1484 H   0  0  0  1  0  0  0  0  0  0  0  0
   -3.3462    1.8777   -2.4015 H   0  0  0  1  0  0  0  0  0  0  0  0
   -1.2602    4.8713   -0.1930 H   0  0  0  1  0  0  0  0  0  0  0  0
   -0.7433    3.6352   -5.0227 H   0  0  0  1  0  0  0  0  0  0  0  0
    1.9011    0.2712   -5.2906 H   0  0  0  1  0  0  0  0  0  0  0  0
   -5.4142    3.2055   -2.2499 H   0  0  0  1  0  0  0  0  0  0  0  0
   -3.3275    6.1996   -0.0389 H   0  0  0  1  0  0  0  0  0  0  0  0
   -0.9554    3.6502   -7.4733 H   0  0  0  1  0  0  0  0  0  0  0  0
    1.6757    0.3025   -7.7399 H   0  0  0  1  0  0  0  0  0  0  0  0
    0.2463    1.9841   -8.8267 H   0  0  0  1  0  0  0  0  0  0  0  0
  1 21  1  0  0  0  0
  2  4  2  0  0  0  0
  2  5  2  0  0  0  0
  2  6  1  0  0  0  0
  2 10  1  0  0  0  0
  3  7  1  0  0  0  0
  3  8  1  0  0  0  0
  6  8  2  0  0  0  0
  7 11  1  0  0  0  0
  7 12  1  0  0  0  0
  7 23  1  0  0  0  0
  8  9  1  0  0  0  0
  9 15  4  0  0  0  0
  9 16  4  0  0  0  0
 10 13  4  0  0  0  0
 10 14  4  0  0  0  0
 11 26  1  0  0  0  0
 11 27  1  0  0  0  0
 11 28  1  0  0  0  0
 12 24  1  0  0  0  0
 12 25  1  0  0  0  0
 12 29  1  0  0  0  0
 13 17  4  0  0  0  0
 13 30  1  0  0  0  0
 14 18  4  0  0  0  0
 14 31  1  0  0  0  0
 15 19  4  0  0  0  0
 15 32  1  0  0  0  0
 16 20  4  0  0  0  0
 16 33  1  0  0  0  0
 17 21  4  0  0  0  0
 17 34  1  0  0  0  0
 18 21  4  0  0  0  0
 18 35  1  0  0  0  0
 19 22  4  0  0  0  0
 19 36  1  0  0  0  0
 20 22  4  0  0  0  0
 20 37  1  0  0  0  0
 22 38  1  0  0  0  0
M  END
> <Activity>
0.01

> <Mapped(file=2032.csv.activities,property=Cached(PUBCHEM_COMPOUND_CID))>
100

> <MatchIndices>
164 

> <PUBCHEM_ATOM_DEF_STEREO_COUNT>
0

> <PUBCHEM_ATOM_UDEF_STEREO_COUNT>
0

> <PUBCHEM_BONDANNOTATIONS>
10  13  8
10  14  8
13  17  8
14  18  8
15  19  8
16  20  8
17  21  8
18  21  8
19  22  8
20  22  8
9  15  8
9  16  8

> <PUBCHEM_BOND_DEF_STEREO_COUNT>
1

> <PUBCHEM_BOND_UDEF_STEREO_COUNT>
0

> <PUBCHEM_CACTVS_COMPLEXITY>
470

> <PUBCHEM_CACTVS_HBOND_ACCEPTOR>
4

> <PUBCHEM_CACTVS_HBOND_DONOR>
0

> <PUBCHEM_CACTVS_ROTATABLE_BOND>
5

> <PUBCHEM_CACTVS_SUBSKEYS>
AAADceB6MABEAAAAAAAAAAAAAAAAAAAAAAAwYAAAAAAAAAABQAAAHgYAQAAADBah2CIyAYAABAKgAiBiAHBCABAgBQAIiBggCpgIJqKBMxiCMAAkwAEIqAeAwCAOAAIAAAAAAAAABAAAAAAAAAAAAAAAAA==

> <PUBCHEM_CACTVS_TAUTO_COUNT>
1

> <PUBCHEM_CACTVS_TPSA>
64.1

> <PUBCHEM_COMPONENT_COUNT>
1

> <PUBCHEM_COMPOUND_CANONICALIZED>
1

> <PUBCHEM_COMPOUND_CID>
5664176

> <PUBCHEM_COORDINATE_TYPE>
1
5
255

> <PUBCHEM_EXACT_MASS>
337.053942

> <PUBCHEM_HEAVY_ATOM_COUNT>
22

> <PUBCHEM_ISOTOPIC_ATOM_COUNT>
0

> <PUBCHEM_IUPAC_CAS_NAME>
(Z)-N-(4-chlorophenyl)sulfonylbenzenecarboximidic acid propan-2-yl ester

> <PUBCHEM_IUPAC_INCHI>
InChI=1S/C16H16ClNO3S/c1-12(2)21-16(13-6-4-3-5-7-13)18-22(19,20)15-10-8-14(17)9-11-15/h3-12H,1-2H3/b18-16-

> <PUBCHEM_IUPAC_INCHIKEY>
NGCHBWRQYKQNFO-VLGSPTGOSA-N

> <PUBCHEM_IUPAC_NAME>
propan-2-yl (Z)-N-(4-chlorophenyl)sulfonylbenzenecarboximidate

> <PUBCHEM_IUPAC_OPENEYE_NAME>
isopropyl (Z)-N-(4-chlorophenyl)sulfonylbenzenecarboximidate

> <PUBCHEM_IUPAC_SYSTEMATIC_NAME>
propan-2-yl (Z)-N-(4-chlorophenyl)sulfonylbenzenecarboximidate

> <PUBCHEM_IUPAC_TRADITIONAL_NAME>
(Z)-N-(4-chlorophenyl)sulfonylbenzenecarboximidic acid isopropyl ester

> <PUBCHEM_MOLECULAR_FORMULA>
C16H16ClNO3S

> <PUBCHEM_MOLECULAR_WEIGHT>
337.82114

> <PUBCHEM_MONOISOTOPIC_WEIGHT>
337.053942

> <PUBCHEM_OPENEYE_CAN_SMILES>
CC(C)OC(=NS(=O)(=O)C1=CC=C(C=C1)Cl)C2=CC=CC=C2

> <PUBCHEM_OPENEYE_ISO_SMILES>
CC(C)O/C(=N\S(=O)(=O)C1=CC=C(C=C1)Cl)/C2=CC=CC=C2

> <PUBCHEM_TOTAL_CHARGE>
0

> <PUBCHEM_XLOGP3_AA>
4.6

$$$$
Largest isolated from Written by BCL::WriteToMDL,2998200
JMcorina  04211410293D 1   1.00000     0.00000 
CORINA 3.49 0026  01.06.2011
 35 37  0  0  0  0  0  0  0  0999 V2000
   -3.2602    3.1134    5.0922 Cl  0  0  0  1  0  0  0  0  0  0  0  0
   -0.0172    1.4168    0.0098 S   0  0  0  1  0  0  0  0  0  0  0  0
   -1.4102    6.5061    0.1188 S   0  0  0  1  0  0  0  0  0  0  0  0
    0.0021   -0.0041    0.0020 O   0  0  0  1  0  0  0  0  0  0  0  0
    1.1617    2.2101    0.0028 O   0  0  0  1  0  0  0  0  0  0  0  0
   -0.9002    1.8797   -1.3124 N   0  0  0  1  0  0  0  0  0  0  0  0
   -1.9669    4.0970   -0.0042 N   0  0  0  1  0  0  0  0  0  0  0  0
   -3.0177    5.1226    1.8685 N   0  0  0  1  0  0  0  0  0  0  0  0
   -0.8028    3.1776   -1.9962 C   0  0  0  1  0  0  0  0  0  0  0  0
   -1.7894    3.1457   -3.1825 C   0  0  0  1  0  0  0  0  0  0  0  0
   -1.9753    1.6268   -3.4390 C   0  0  0  1  0  0  0  0  0  0  0  0
   -1.9096    1.0563   -2.0027 C   0  0  0  1  0  0  0  0  0  0  0  0
   -1.1782    4.2864   -1.0471 C   0  0  0  1  0  0  0  0  0  0  0  0
   -0.9297    1.8941    1.4396 C   0  0  0  1  0  0  0  0  0  0  0  0
   -0.7413    5.5377   -1.1920 C   0  0  0  1  0  0  0  0  0  0  0  0
   -1.8430    1.0206    1.9998 C   0  0  0  1  0  0  0  0  0  0  0  0
   -0.7278    3.1398    2.0040 C   0  0  0  1  0  0  0  0  0  0  0  0
   -2.2158    5.1311    0.7379 C   0  0  0  1  0  0  0  0  0  0  0  0
   -2.5590    1.3945    3.1213 C   0  0  0  1  0  0  0  0  0  0  0  0
   -1.4426    3.5145    3.1260 C   0  0  0  1  0  0  0  0  0  0  0  0
   -2.3612    2.6431    3.6836 C   0  0  0  1  0  0  0  0  0  0  0  0
    0.2127    3.3284   -2.3625 H   0  0  0  1  0  0  0  0  0  0  0  0
   -2.7370    3.6094   -2.9085 H   0  0  0  1  0  0  0  0  0  0  0  0
   -1.3580    3.6344   -4.0560 H   0  0  0  1  0  0  0  0  0  0  0  0
   -2.9427    1.4237   -3.8982 H   0  0  0  1  0  0  0  0  0  0  0  0
   -1.1638    1.2317   -4.0502 H   0  0  0  1  0  0  0  0  0  0  0  0
   -1.5981    0.0120   -2.0227 H   0  0  0  1  0  0  0  0  0  0  0  0
   -2.8786    1.1547   -1.5133 H   0  0  0  1  0  0  0  0  0  0  0  0
   -0.0911    5.8954   -1.9766 H   0  0  0  1  0  0  0  0  0  0  0  0
   -1.9973    0.0460    1.5609 H   0  0  0  1  0  0  0  0  0  0  0  0
   -0.0111    3.8203    1.5683 H   0  0  0  1  0  0  0  0  0  0  0  0
   -3.2730    0.7123    3.5585 H   0  0  0  1  0  0  0  0  0  0  0  0
   -1.2848    4.4877    3.5669 H   0  0  0  1  0  0  0  0  0  0  0  0
   -3.1553    5.9404    2.3716 H   0  0  0  1  0  0  0  0  0  0  0  0
   -3.4412    4.2989    2.1565 H   0  0  0  1  0  0  0  0  0  0  0  0
  1 21  1  0  0  0  0
  2  4  2  0  0  0  0
  2  5  2  0  0  0  0
  2  6  1  0  0  0  0
  2 14  1  0  0  0  0
  3 15  4  0  0  0  0
  3 18  4  0  0  0  0
  6  9  1  0  0  0  0
  6 12  1  0  0  0  0
  7 13  4  0  0  0  0
  7 18  4  0  0  0  0
  8 18  1  0  0  0  0
  8 34  1  0  0  0  0
  8 35  1  0  0  0  0
  9 10  1  0  0  0  0
  9 13  1  0  0  0  0
  9 22  1  0  0  0  0
 10 11  1  0  0  0  0
 10 23  1  0  0  0  0
 10 24  1  0  0  0  0
 11 12  1  0  0  0  0
 11 25  1  0  0  0  0
 11 26  1  0  0  0  0
 12 27  1  0  0  0  0
 12 28  1  0  0  0  0
 13 15  4  0  0  0  0
 14 16  4  0  0  0  0
 14 17  4  0  0  0  0
 15 29  1  0  0  0  0
 16 19  4  0  0  0  0
 16 30  1  0  0  0  0
 17 20  4  0  0  0  0
 17 31  1  0  0  0  0
 19 21  4  0  0  0  0
 19 32  1  0  0  0  0
 20 21  4  0  0  0  0
 20 33  1  0  0  0  0
M  END
> <Activity>
0.01

> <Mapped(file=2032.csv.activities,property=Cached(PUBCHEM_COMPOUND_CID))>
100

> <MatchIndices>
172 

> <PUBCHEM_ATOM_DEF_STEREO_COUNT>
0

> <PUBCHEM_ATOM_UDEF_STEREO_COUNT>
1

> <PUBCHEM_BONDANNOTATIONS>
13  15  8
14  16  8
14  17  8
16  19  8
17  20  8
19  21  8
20  21  8
3  15  8
3  18  8
7  13  8
7  18  8
9  13  3

> <PUBCHEM_BOND_DEF_STEREO_COUNT>
0

> <PUBCHEM_BOND_UDEF_STEREO_COUNT>
0

> <PUBCHEM_CACTVS_COMPLEXITY>
463

> <PUBCHEM_CACTVS_HBOND_ACCEPTOR>
4

> <PUBCHEM_CACTVS_HBOND_DONOR>
1

> <PUBCHEM_CACTVS_ROTATABLE_BOND>
3

> <PUBCHEM_CACTVS_SUBSKEYS>
AAADccBzMABkAAAAAAAAAAAAAAAAAWLAAAAwAAAAAAAAAAABwAAAHAYQQAAACCrFViSxkZJIEAqkASRiZHDC8LlhDzkIiBw4JoiIYCKhkxCUIAgggAKIiCcQAAAAAAIAAAAAAAAABAAAAAAAAAAAAAAAAA==

> <PUBCHEM_CACTVS_TAUTO_COUNT>
2

> <PUBCHEM_CACTVS_TPSA>
113

> <PUBCHEM_COMPONENT_COUNT>
1

> <PUBCHEM_COMPOUND_CANONICALIZED>
1

> <PUBCHEM_COMPOUND_CID>
2998200

> <PUBCHEM_COORDINATE_TYPE>
1
5
255

> <PUBCHEM_EXACT_MASS>
343.021596

> <PUBCHEM_HEAVY_ATOM_COUNT>
21

> <PUBCHEM_ISOTOPIC_ATOM_COUNT>
0

> <PUBCHEM_IUPAC_CAS_NAME>
4-[1-(4-chlorophenyl)sulfonyl-2-pyrrolidinyl]-2-thiazolamine

> <PUBCHEM_IUPAC_INCHI>
InChI=1S/C13H14ClN3O2S2/c14-9-3-5-10(6-4-9)21(18,19)17-7-1-2-12(17)11-8-20-13(15)16-11/h3-6,8,12H,1-2,7H2,(H2,15,16)

> <PUBCHEM_IUPAC_INCHIKEY>
VCWXNYKJWJLNSS-UHFFFAOYSA-N

> <PUBCHEM_IUPAC_NAME>
4-[1-(4-chlorophenyl)sulfonylpyrrolidin-2-yl]-1,3-thiazol-2-amine

> <PUBCHEM_IUPAC_OPENEYE_NAME>
4-[1-(4-chlorophenyl)sulfonylpyrrolidin-2-yl]thiazol-2-amine

> <PUBCHEM_IUPAC_SYSTEMATIC_NAME>
4-[1-(4-chlorophenyl)sulfonylpyrrolidin-2-yl]-1,3-thiazol-2-amine

> <PUBCHEM_IUPAC_TRADITIONAL_NAME>
[4-[1-(4-chlorophenyl)sulfonylpyrrolidin-2-yl]thiazol-2-yl]amine

> <PUBCHEM_MOLECULAR_FORMULA>
C13H14ClN3O2S2

> <PUBCHEM_MOLECULAR_WEIGHT>
343.85216

> <PUBCHEM_MONOISOTOPIC_WEIGHT>
343.021596

> <PUBCHEM_OPENEYE_CAN_SMILES>
C1CC(N(C1)S(=O)(=O)C2=CC=C(C=C2)Cl)C3=CSC(=N3)N

> <PUBCHEM_OPENEYE_ISO_SMILES>
C1CC(N(C1)S(=O)(=O)C2=CC=C(C=C2)Cl)C3=CSC(=N3)N

> <PUBCHEM_TOTAL_CHARGE>
0

> <PUBCHEM_XLOGP3_AA>
2.4

$$$$
Largest isolated from Written by BCL::WriteToMDL,693414
JMcorina  04211410293D 1   1.00000     0.00000 
CORINA 3.49 0026  01.06.2011
 34 35  0  0  0  0  0  0  0  0999 V2000
    0.5910    6.7692   -1.0637 Cl  0  0  0  1  0  0  0  0  0  0  0  0
    0.0687    1.4292   -0.0473 S   0  0  0  1  0  0  0  0  0  0  0  0
    0.0821    0.0083   -0.0384 O   0  0  0  1  0  0  0  0  0  0  0  0
    1.2474    2.2169   -0.1442 O   0  0  0  1  0  0  0  0  0  0  0  0
   -2.1464    7.2116   -2.0811 O   0  0  0  1  0  0  0  0  0  0  0  0
   -0.9002    1.8797   -1.3124 N   0  0  0  1  0  0  0  0  0  0  0  0
   -1.2153    3.2293   -1.5063 C   0  0  0  1  0  0  0  0  0  0  0  0
   -2.4720    3.5889   -1.9754 C   0  0  0  1  0  0  0  0  0  0  0  0
   -2.7825    4.9209   -2.1671 C   0  0  0  1  0  0  0  0  0  0  0  0
   -0.2735    4.2098   -1.2245 C   0  0  0  1  0  0  0  0  0  0  0  0
   -1.8398    5.9000   -1.8915 C   0  0  0  1  0  0  0  0  0  0  0  0
   -0.7429    1.9284    1.4348 C   0  0  0  1  0  0  0  0  0  0  0  0
   -3.4968    2.5255   -2.2756 C   0  0  0  1  0  0  0  0  0  0  0  0
   -0.5857    5.5425   -1.4164 C   0  0  0  1  0  0  0  0  0  0  0  0
   -4.1461    5.3106   -2.6766 C   0  0  0  1  0  0  0  0  0  0  0  0
   -1.6194    1.0664    2.0669 C   0  0  0  1  0  0  0  0  0  0  0  0
   -0.4988    3.1800    1.9686 C   0  0  0  1  0  0  0  0  0  0  0  0
   -2.2562    1.4581    3.2297 C   0  0  0  1  0  0  0  0  0  0  0  0
   -1.1355    3.5717    3.1314 C   0  0  0  1  0  0  0  0  0  0  0  0
   -2.0161    2.7116    3.7606 C   0  0  0  1  0  0  0  0  0  0  0  0
   -1.2494    1.2082   -1.9190 H   0  0  0  1  0  0  0  0  0  0  0  0
    0.7024    3.9313   -0.8551 H   0  0  0  1  0  0  0  0  0  0  0  0
   -4.0879    2.3278   -1.3814 H   0  0  0  1  0  0  0  0  0  0  0  0
   -4.1524    2.8685   -3.0760 H   0  0  0  1  0  0  0  0  0  0  0  0
   -2.9913    1.6112   -2.5866 H   0  0  0  1  0  0  0  0  0  0  0  0
   -4.8192    5.4635   -1.8329 H   0  0  0  1  0  0  0  0  0  0  0  0
   -4.0691    6.2334   -3.2517 H   0  0  0  1  0  0  0  0  0  0  0  0
   -4.5365    4.5170   -3.3136 H   0  0  0  1  0  0  0  0  0  0  0  0
   -1.8070    0.0870    1.6521 H   0  0  0  1  0  0  0  0  0  0  0  0
    0.1896    3.8516    1.4774 H   0  0  0  1  0  0  0  0  0  0  0  0
   -2.9415    0.7849    3.7231 H   0  0  0  1  0  0  0  0  0  0  0  0
   -0.9446    4.5493    3.5486 H   0  0  0  1  0  0  0  0  0  0  0  0
   -2.5139    3.0178    4.6688 H   0  0  0  1  0  0  0  0  0  0  0  0
   -2.5309    7.6418   -1.3051 H   0  0  0  1  0  0  0  0  0  0  0  0
  1 14  1  0  0  0  0
  2  3  2  0  0  0  0
  2  4  2  0  0  0  0
  2  6  1  0  0  0  0
  2 12  1  0  0  0  0
  5 11  1  0  0  0  0
  5 34  1  0  0  0  0
  6  7  1  0  0  0  0
  6 21  1  0  0  0  0
  7  8  4  0  0  0  0
  7 10  4  0  0  0  0
  8  9  4  0  0  0  0
  8 13  1  0  0  0  0
  9 11  4  0  0  0  0
  9 15  1  0  0  0  0
 10 14  4  0  0  0  0
 10 22  1  0  0  0  0
 11 14  4  0  0  0  0
 12 16  4  0  0  0  0
 12 17  4  0  0  0  0
 13 23  1  0  0  0  0
 13 24  1  0  0  0  0
 13 25  1  0  0  0  0
 15 26  1  0  0  0  0
 15 27  1  0  0  0  0
 15 28  1  0  0  0  0
 16 18  4  0  0  0  0
 16 29  1  0  0  0  0
 17 19  4  0  0  0  0
 17 30  1  0  0  0  0
 18 20  4  0  0  0  0
 18 31  1  0  0  0  0
 19 20  4  0  0  0  0
 19 32  1  0  0  0  0
 20 33  1  0  0  0  0
M  END
> <Activity>
0.01

> <Mapped(file=2032.csv.activities,property=Cached(PUBCHEM_COMPOUND_CID))>
100

> <MatchIndices>
215 

> <PUBCHEM_ATOM_DEF_STEREO_COUNT>
0

> <PUBCHEM_ATOM_UDEF_STEREO_COUNT>
0

> <PUBCHEM_BONDANNOTATIONS>
10  14  8
11  14  8
12  16  8
12  17  8
16  18  8
17  19  8
18  20  8
19  20  8
7  10  8
7  8  8
8  9  8
9  11  8

> <PUBCHEM_BOND_DEF_STEREO_COUNT>
0

> <PUBCHEM_BOND_UDEF_STEREO_COUNT>
0

> <PUBCHEM_CACTVS_COMPLEXITY>
417

> <PUBCHEM_CACTVS_HBOND_ACCEPTOR>
4

> <PUBCHEM_CACTVS_HBOND_DONOR>
2

> <PUBCHEM_CACTVS_ROTATABLE_BOND>
3

> <PUBCHEM_CACTVS_SUBSKEYS>
AAADccByMABEAAAAAAAAAAAAAAAAAAAAAAAwYAAAAAAAAAABQAAAHgYQSAAADA6B2CAyx4BAAgKAAiRCQHDCABAgJ0AIiBgEb4gIJiKDk5OAcABk0BEI2AewwLAOhEABYAIaCAAIgALABDQQAAAAAAAAAA==

> <PUBCHEM_CACTVS_TAUTO_COUNT>
6

> <PUBCHEM_CACTVS_TPSA>
74.8

> <PUBCHEM_COMPONENT_COUNT>
1

> <PUBCHEM_COMPOUND_CANONICALIZED>
1

> <PUBCHEM_COMPOUND_CID>
693414

> <PUBCHEM_COORDINATE_TYPE>
1
5
255

> <PUBCHEM_EXACT_MASS>
311.038292

> <PUBCHEM_HEAVY_ATOM_COUNT>
20

> <PUBCHEM_ISOTOPIC_ATOM_COUNT>
0

> <PUBCHEM_IUPAC_CAS_NAME>
N-(5-chloro-4-hydroxy-2,3-dimethylphenyl)benzenesulfonamide

> <PUBCHEM_IUPAC_INCHI>
InChI=1S/C14H14ClNO3S/c1-9-10(2)14(17)12(15)8-13(9)16-20(18,19)11-6-4-3-5-7-11/h3-8,16-17H,1-2H3

> <PUBCHEM_IUPAC_INCHIKEY>
LEILQUVZVYXNRY-UHFFFAOYSA-N

> <PUBCHEM_IUPAC_NAME>
N-(5-chloro-4-hydroxy-2,3-dimethylphenyl)benzenesulfonamide

> <PUBCHEM_IUPAC_OPENEYE_NAME>
N-(5-chloro-4-hydroxy-2,3-dimethyl-phenyl)benzenesulfonamide

> <PUBCHEM_IUPAC_SYSTEMATIC_NAME>
N-(5-chloranyl-2,3-dimethyl-4-oxidanyl-phenyl)benzenesulfonamide

> <PUBCHEM_IUPAC_TRADITIONAL_NAME>
N-(5-chloro-4-hydroxy-2,3-dimethyl-phenyl)benzenesulfonamide

> <PUBCHEM_MOLECULAR_FORMULA>
C14H14ClNO3S

> <PUBCHEM_MOLECULAR_WEIGHT>
311.78386

> <PUBCHEM_MONOISOTOPIC_WEIGHT>
311.038292

> <PUBCHEM_OPENEYE_CAN_SMILES>
CC1=C(C(=C(C=C1NS(=O)(=O)C2=CC=CC=C2)Cl)O)C

> <PUBCHEM_OPENEYE_ISO_SMILES>
CC1=C(C(=C(C=C1NS(=O)(=O)C2=CC=CC=C2)Cl)O)C

> <PUBCHEM_TOTAL_CHARGE>
0

> <PUBCHEM_XLOGP3_AA>
3.4

$$$$
Largest isolated from Written by BCL::WriteToMDL,24819210
JMcorina  04211410293D 1   1.00000     0.00000 
CORINA 3.49 0026  01.06.2011
 45 47  0  0  0  0  0  0  0  0999 V2000
   -0.1873    2.0675    0.1478 S   0  0  0  1  0  0  0  0  0  0  0  0
  -11.5472   -0.3645    5.5473 F   0  0  0  1  0  0  0  0  0  0  0  0
   -2.1793   -0.6868    1.1049 O   0  0  0  1  0  0  0  0  0  0  0  0
   -5.5364   -1.9235    1.2142 O   0  0  0  1  0  0  0  0  0  0  0  0
   -4.1600   -1.8180    2.9555 N   0  0  0  1  0  0  0  0  0  0  0  0
   -6.2071   -1.6506    6.0648 N   0  0  0  1  0  0  0  0  0  0  0  0
   -5.2451   -1.2055    5.0535 C   0  0  0  1  0  0  0  0  0  0  0  0
   -3.8508   -1.1179    5.6784 C   0  0  0  1  0  0  0  0  0  0  0  0
   -5.2193   -2.2084    3.8958 C   0  0  0  1  0  0  0  0  0  0  0  0
   -2.8510   -0.6215    4.6315 C   0  0  0  1  0  0  0  0  0  0  0  0
   -2.7981   -1.6178    3.4690 C   0  0  0  1  0  0  0  0  0  0  0  0
   -4.4314   -1.6522    1.6457 C   0  0  0  1  0  0  0  0  0  0  0  0
   -7.5604   -1.3247    5.9336 C   0  0  0  1  0  0  0  0  0  0  0  0
   -3.3949   -1.1449    0.7406 C   0  0  0  1  0  0  0  0  0  0  0  0
   -8.4732   -1.7461    6.8917 C   0  0  0  1  0  0  0  0  0  0  0  0
   -7.9929   -0.5741    4.8482 C   0  0  0  1  0  0  0  0  0  0  0  0
   -3.4913   -1.0530   -0.6183 C   0  0  0  1  0  0  0  0  0  0  0  0
   -1.5022   -0.3068    0.0137 C   0  0  0  1  0  0  0  0  0  0  0  0
   -2.2768   -0.5163   -1.0736 C   0  0  0  1  0  0  0  0  0  0  0  0
   -9.8096   -1.4230    6.7601 C   0  0  0  1  0  0  0  0  0  0  0  0
   -9.3303   -0.2533    4.7206 C   0  0  0  1  0  0  0  0  0  0  0  0
  -10.2395   -0.6794    5.6740 C   0  0  0  1  0  0  0  0  0  0  0  0
   -0.1064    0.2613    0.0005 C   0  0  0  1  0  0  0  0  0  0  0  0
    1.5587    2.5583    0.1138 C   0  0  0  1  0  0  0  0  0  0  0  0
   -5.5383   -0.2246    4.6793 H   0  0  0  1  0  0  0  0  0  0  0  0
   -3.8722   -0.4233    6.5181 H   0  0  0  1  0  0  0  0  0  0  0  0
   -3.5482   -2.1040    6.0307 H   0  0  0  1  0  0  0  0  0  0  0  0
   -6.1822   -2.2015    3.3849 H   0  0  0  1  0  0  0  0  0  0  0  0
   -5.0153   -3.2071    4.2820 H   0  0  0  1  0  0  0  0  0  0  0  0
   -3.1665    0.3538    4.2607 H   0  0  0  1  0  0  0  0  0  0  0  0
   -1.8627   -0.5370    5.0835 H   0  0  0  1  0  0  0  0  0  0  0  0
   -2.3966   -2.5683    3.8203 H   0  0  0  1  0  0  0  0  0  0  0  0
   -2.1634   -1.2213    2.6765 H   0  0  0  1  0  0  0  0  0  0  0  0
   -5.9051   -2.1715    6.8253 H   0  0  0  1  0  0  0  0  0  0  0  0
   -8.1384   -2.3264    7.7388 H   0  0  0  1  0  0  0  0  0  0  0  0
   -7.2840   -0.2412    4.1045 H   0  0  0  1  0  0  0  0  0  0  0  0
   -4.3379   -1.3380   -1.2252 H   0  0  0  1  0  0  0  0  0  0  0  0
   -2.0113   -0.3100   -2.0999 H   0  0  0  1  0  0  0  0  0  0  0  0
  -10.5199   -1.7509    7.5047 H   0  0  0  1  0  0  0  0  0  0  0  0
   -9.6671    0.3303    3.8766 H   0  0  0  1  0  0  0  0  0  0  0  0
    0.3856   -0.0053   -0.9349 H   0  0  0  1  0  0  0  0  0  0  0  0
    0.4598   -0.1466    0.8379 H   0  0  0  1  0  0  0  0  0  0  0  0
    2.0090    2.2342   -0.8245 H   0  0  0  1  0  0  0  0  0  0  0  0
    1.6330    3.6425    0.1971 H   0  0  0  1  0  0  0  0  0  0  0  0
    2.0832    2.0930    0.9483 H   0  0  0  1  0  0  0  0  0  0  0  0
  1 23  1  0  0  0  0
  1 24  1  0  0  0  0
  2 22  1  0  0  0  0
  3 14  4  0  0  0  0
  3 18  4  0  0  0  0
  4 12  2  0  0  0  0
  5  9  1  0  0  0  0
  5 11  1  0  0  0  0
  5 12  1  0  0  0  0
  6  7  1  0  0  0  0
  6 13  1  0  0  0  0
  6 34  1  0  0  0  0
  7  8  1  0  0  0  0
  7  9  1  0  0  0  0
  7 25  1  0  0  0  0
  8 10  1  0  0  0  0
  8 26  1  0  0  0  0
  8 27  1  0  0  0  0
  9 28  1  0  0  0  0
  9 29  1  0  0  0  0
 10 11  1  0  0  0  0
 10 30  1  0  0  0  0
 10 31  1  0  0  0  0
 11 32  1  0  0  0  0
 11 33  1  0  0  0  0
 12 14  1  0  0  0  0
 13 15  4  0  0  0  0
 13 16  4  0  0  0  0
 14 17  4  0  0  0  0
 15 20  4  0  0  0  0
 15 35  1  0  0  0  0
 16 21  4  0  0  0  0
 16 36  1  0  0  0  0
 17 19  4  0  0  0  0
 17 37  1  0  0  0  0
 18 19  4  0  0  0  0
 18 23  1  0  0  0  0
 19 38  1  0  0  0  0
 20 22  4  0  0  0  0
 20 39  1  0  0  0  0
 21 22  4  0  0  0  0
 21 40  1  0  0  0  0
 23 41  1  0  0  0  0
 23 42  1  0  0  0  0
 24 43  1  0  0  0  0
 24 44  1  0  0  0  0
 24 45  1  0  0  0  0
M  END
> <Activity>
0.01

> <Mapped(file=2032.csv.activities,property=Cached(PUBCHEM_COMPOUND_CID))>
100

> <MatchIndices>
126 

> <PUBCHEM_ATOM_DEF_STEREO_COUNT>
0

> <PUBCHEM_ATOM_UDEF_STEREO_COUNT>
1

> <PUBCHEM_BONDANNOTATIONS>
13  15  8
13  16  8
14  17  8
15  20  8
16  21  8
17  19  8
18  19  8
20  22  8
21  22  8
3  14  8
3  18  8
7  6  3

> <PUBCHEM_BOND_DEF_STEREO_COUNT>
0

> <PUBCHEM_BOND_UDEF_STEREO_COUNT>
0

> <PUBCHEM_CACTVS_COMPLEXITY>
418

> <PUBCHEM_CACTVS_HBOND_ACCEPTOR>
5

> <PUBCHEM_CACTVS_HBOND_DONOR>
1

> <PUBCHEM_CACTVS_ROTATABLE_BOND>
5

> <PUBCHEM_CACTVS_SUBSKEYS>
AAADceB7MQBAAAAAAAAAAAAAAAAAASAAAAA8QAAAAAAAAAABwAAAHwQQAAAACCzF0AyyxIPABEiIAKVSUAKCCAAlIhAIiIHObMgOZjLktb+XOSjk1hHY6YeYHwJgAAAAAAAAAAAAAAAAAAAAAAAAAAAAAA==

> <PUBCHEM_CACTVS_TAUTO_COUNT>
1

> <PUBCHEM_CACTVS_TPSA>
70.8

> <PUBCHEM_COMPONENT_COUNT>
1

> <PUBCHEM_COMPOUND_CANONICALIZED>
1

> <PUBCHEM_COMPOUND_CID>
24819210

> <PUBCHEM_COORDINATE_TYPE>
1
5
255

> <PUBCHEM_EXACT_MASS>
348.130777

> <PUBCHEM_HEAVY_ATOM_COUNT>
24

> <PUBCHEM_ISOTOPIC_ATOM_COUNT>
0

> <PUBCHEM_IUPAC_CAS_NAME>
[3-(4-fluoroanilino)-1-piperidinyl]-[5-[(methylthio)methyl]-2-furanyl]methanone

> <PUBCHEM_IUPAC_INCHI>
InChI=1S/C18H21FN2O2S/c1-24-12-16-8-9-17(23-16)18(22)21-10-2-3-15(11-21)20-14-6-4-13(19)5-7-14/h4-9,15,20H,2-3,10-12H2,1H3

> <PUBCHEM_IUPAC_INCHIKEY>
AZWURYSNVASDSZ-UHFFFAOYSA-N

> <PUBCHEM_IUPAC_NAME>
[3-(4-fluoroanilino)piperidin-1-yl]-[5-(methylsulfanylmethyl)furan-2-yl]methanone

> <PUBCHEM_IUPAC_OPENEYE_NAME>
[3-(4-fluoroanilino)-1-piperidyl]-[5-(methylsulfanylmethyl)-2-furyl]methanone

> <PUBCHEM_IUPAC_SYSTEMATIC_NAME>
[3-[(4-fluorophenyl)amino]piperidin-1-yl]-[5-(methylsulfanylmethyl)furan-2-yl]methanone

> <PUBCHEM_IUPAC_TRADITIONAL_NAME>
[3-(4-fluoroanilino)piperidino]-[5-[(methylthio)methyl]-2-furyl]methanone

> <PUBCHEM_MOLECULAR_FORMULA>
C18H21FN2O2S

> <PUBCHEM_MOLECULAR_WEIGHT>
348.434943

> <PUBCHEM_MONOISOTOPIC_WEIGHT>
348.130777

> <PUBCHEM_OPENEYE_CAN_SMILES>
CSCC1=CC=C(O1)C(=O)N2CCCC(C2)NC3=CC=C(C=C3)F

> <PUBCHEM_OPENEYE_ISO_SMILES>
CSCC1=CC=C(O1)C(=O)N2CCCC(C2)NC3=CC=C(C=C3)F

> <PUBCHEM_TOTAL_CHARGE>
0

> <PUBCHEM_XLOGP3_AA>
3.6

$$$$
Largest isolated from Written by BCL::WriteToMDL,2367813
JMcorina  04211410293D 1   1.00000     0.00000 
CORINA 3.49 0026  01.06.2011
 34 36  0  0  0  0  0  0  0  0999 V2000
   -0.0172    1.4168    0.0098 S   0  0  0  1  0  0  0  0  0  0  0  0
   -1.7405    3.4343    1.3300 F   0  0  0  1  0  0  0  0  0  0  0  0
    0.5471    0.1518   -0.3074 O   0  0  0  1  0  0  0  0  0  0  0  0
    0.7628    2.5434    0.3860 O   0  0  0  1  0  0  0  0  0  0  0  0
   -0.9002    1.8797   -1.3124 N   0  0  0  1  0  0  0  0  0  0  0  0
   -0.7915    3.2460   -1.8418 C   0  0  0  1  0  0  0  0  0  0  0  0
   -2.2109    3.7486   -2.1368 C   0  0  0  1  0  0  0  0  0  0  0  0
   -2.8290    2.8714   -3.2253 C   0  0  0  1  0  0  0  0  0  0  0  0
   -1.7577    0.9745   -1.9473 C   0  0  0  1  0  0  0  0  0  0  0  0
   -2.7015    1.4149   -2.8643 C   0  0  0  1  0  0  0  0  0  0  0  0
   -1.6586   -0.3786   -1.6437 C   0  0  0  1  0  0  0  0  0  0  0  0
   -3.5444    0.4984   -3.4698 C   0  0  0  1  0  0  0  0  0  0  0  0
   -1.1555    1.1380    1.3256 C   0  0  0  1  0  0  0  0  0  0  0  0
   -2.4975   -1.2876   -2.2570 C   0  0  0  1  0  0  0  0  0  0  0  0
   -3.4499   -0.8452   -3.1620 C   0  0  0  1  0  0  0  0  0  0  0  0
   -1.8935    2.1918    1.8380 C   0  0  0  1  0  0  0  0  0  0  0  0
   -1.3162   -0.1332    1.8428 C   0  0  0  1  0  0  0  0  0  0  0  0
   -2.7878    1.9712    2.8715 C   0  0  0  1  0  0  0  0  0  0  0  0
   -2.2097   -0.3524    2.8750 C   0  0  0  1  0  0  0  0  0  0  0  0
   -2.9430    0.6997    3.3907 C   0  0  0  1  0  0  0  0  0  0  0  0
   -0.3175    3.8917   -1.1026 H   0  0  0  1  0  0  0  0  0  0  0  0
   -0.2036    3.2406   -2.7596 H   0  0  0  1  0  0  0  0  0  0  0  0
   -2.8153    3.6878   -1.2318 H   0  0  0  1  0  0  0  0  0  0  0  0
   -2.1682    4.7820   -2.4809 H   0  0  0  1  0  0  0  0  0  0  0  0
   -3.8835    3.1242   -3.3362 H   0  0  0  1  0  0  0  0  0  0  0  0
   -2.3166    3.0546   -4.1698 H   0  0  0  1  0  0  0  0  0  0  0  0
   -0.9248   -0.7189   -0.9280 H   0  0  0  1  0  0  0  0  0  0  0  0
   -4.2795    0.8354   -4.1857 H   0  0  0  1  0  0  0  0  0  0  0  0
   -2.4203   -2.3389   -2.0217 H   0  0  0  1  0  0  0  0  0  0  0  0
   -4.1107   -1.5546   -3.6379 H   0  0  0  1  0  0  0  0  0  0  0  0
   -0.7440   -0.9560    1.4403 H   0  0  0  1  0  0  0  0  0  0  0  0
   -3.3636    2.7923    3.2721 H   0  0  0  1  0  0  0  0  0  0  0  0
   -2.3349   -1.3464    3.2783 H   0  0  0  1  0  0  0  0  0  0  0  0
   -3.6404    0.5274    4.1972 H   0  0  0  1  0  0  0  0  0  0  0  0
  1  3  2  0  0  0  0
  1  4  2  0  0  0  0
  1  5  1  0  0  0  0
  1 13  1  0  0  0  0
  2 16  1  0  0  0  0
  5  6  1  0  0  0  0
  5  9  1  0  0  0  0
  6  7  1  0  0  0  0
  6 21  1  0  0  0  0
  6 22  1  0  0  0  0
  7  8  1  0  0  0  0
  7 23  1  0  0  0  0
  7 24  1  0  0  0  0
  8 10  1  0  0  0  0
  8 25  1  0  0  0  0
  8 26  1  0  0  0  0
  9 10  4  0  0  0  0
  9 11  4  0  0  0  0
 10 12  4  0  0  0  0
 11 14  4  0  0  0  0
 11 27  1  0  0  0  0
 12 15  4  0  0  0  0
 12 28  1  0  0  0  0
 13 16  4  0  0  0  0
 13 17  4  0  0  0  0
 14 15  4  0  0  0  0
 14 29  1  0  0  0  0
 15 30  1  0  0  0  0
 16 18  4  0  0  0  0
 17 19  4  0  0  0  0
 17 31  1  0  0  0  0
 18 20  4  0  0  0  0
 18 32  1  0  0  0  0
 19 20  4  0  0  0  0
 19 33  1  0  0  0  0
 20 34  1  0  0  0  0
M  END
> <Activity>
0.01

> <Mapped(file=2032.csv.activities,property=Cached(PUBCHEM_COMPOUND_CID))>
100

> <MatchIndices>
111 

> <PUBCHEM_ATOM_DEF_STEREO_COUNT>
0

> <PUBCHEM_ATOM_UDEF_STEREO_COUNT>
0

> <PUBCHEM_BONDANNOTATIONS>
10  12  8
11  14  8
12  15  8
13  16  8
13  17  8
14  15  8
16  18  8
17  19  8
18  20  8
19  20  8
9  10  8
9  11  8

> <PUBCHEM_BOND_DEF_STEREO_COUNT>
0

> <PUBCHEM_BOND_UDEF_STEREO_COUNT>
0

> <PUBCHEM_CACTVS_COMPLEXITY>
434

> <PUBCHEM_CACTVS_HBOND_ACCEPTOR>
4

> <PUBCHEM_CACTVS_HBOND_DONOR>
0

> <PUBCHEM_CACTVS_ROTATABLE_BOND>
2

> <PUBCHEM_CACTVS_SUBSKEYS>
AAADccByMQBAAAAAAAAAAAAAAAAAAAAAAAA8YIAAAAAAAACxQAAAHQQAQAAADAjBWAwwwYIAAAKAAiRCQHDCABAhAgAIiBgIZIgIICLAkZGEIAhggADIyAcQgIAOAAAAAAACAAAAAAAAAAQAAAAAAAAAAA==

> <PUBCHEM_CACTVS_TAUTO_COUNT>
1

> <PUBCHEM_CACTVS_TPSA>
45.8

> <PUBCHEM_COMPONENT_COUNT>
1

> <PUBCHEM_COMPOUND_CANONICALIZED>
1

> <PUBCHEM_COMPOUND_CID>
2367813

> <PUBCHEM_COORDINATE_TYPE>
1
5
255

> <PUBCHEM_EXACT_MASS>
291.072928

> <PUBCHEM_HEAVY_ATOM_COUNT>
20

> <PUBCHEM_ISOTOPIC_ATOM_COUNT>
0

> <PUBCHEM_IUPAC_CAS_NAME>
1-(2-fluorophenyl)sulfonyl-3,4-dihydro-2H-quinoline

> <PUBCHEM_IUPAC_INCHI>
InChI=1S/C15H14FNO2S/c16-13-8-2-4-10-15(13)20(18,19)17-11-5-7-12-6-1-3-9-14(12)17/h1-4,6,8-10H,5,7,11H2

> <PUBCHEM_IUPAC_INCHIKEY>
VYDYOSZZCXJMDC-UHFFFAOYSA-N

> <PUBCHEM_IUPAC_NAME>
1-(2-fluorophenyl)sulfonyl-3,4-dihydro-2H-quinoline

> <PUBCHEM_IUPAC_OPENEYE_NAME>
1-(2-fluorophenyl)sulfonyl-3,4-dihydro-2H-quinoline

> <PUBCHEM_IUPAC_SYSTEMATIC_NAME>
1-(2-fluorophenyl)sulfonyl-3,4-dihydro-2H-quinoline

> <PUBCHEM_IUPAC_TRADITIONAL_NAME>
1-(2-fluorophenyl)sulfonyl-3,4-dihydro-2H-quinoline

> <PUBCHEM_MOLECULAR_FORMULA>
C15H14FNO2S

> <PUBCHEM_MOLECULAR_WEIGHT>
291.340563

> <PUBCHEM_MONOISOTOPIC_WEIGHT>
291.072928

> <PUBCHEM_OPENEYE_CAN_SMILES>
C1CC2=CC=CC=C2N(C1)S(=O)(=O)C3=CC=CC=C3F

> <PUBCHEM_OPENEYE_ISO_SMILES>
C1CC2=CC=CC=C2N(C1)S(=O)(=O)C3=CC=CC=C3F

> <PUBCHEM_TOTAL_CHARGE>
0

> <PUBCHEM_XLOGP3_AA>
3.1

$$$$
Largest isolated from Written by BCL::WriteToMDL,2935256
JMcorina  04211410293D 1   1.00000     0.00000 
CORINA 3.49 0026  01.06.2011
 43 44  0  0  0  0  0  0  0  0999 V2000
   -0.0173    1.4248    0.0099 O   0  0  0  1  0  0  0  0  0  0  0  0
   -2.7907   -2.5720    0.0149 N   0  0  0  1  0  0  0  0  0  0  0  0
   -1.4333   -0.5336    0.0129 C   0  0  0  1  0  0  0  0  0  0  0  0
   -1.4126   -2.0635    0.0045 C   0  0  0  1  0  0  0  0  0  0  0  0
    0.0021   -0.0041    0.0020 C   0  0  0  1  0  0  0  0  0  0  0  0
   -2.8100   -4.0408    0.0072 C   0  0  0  1  0  0  0  0  0  0  0  0
    1.1850    2.0582    0.0018 C   0  0  0  1  0  0  0  0  0  0  0  0
   -4.2372   -4.5245    0.0182 C   0  0  0  1  0  0  0  0  0  0  0  0
    1.2402    3.4442    0.0087 C   0  0  0  1  0  0  0  0  0  0  0  0
    2.3596    1.3195   -0.0077 C   0  0  0  1  0  0  0  0  0  0  0  0
    3.5803    1.9656   -0.0159 C   0  0  0  1  0  0  0  0  0  0  0  0
    2.4638    4.0857    0.0004 C   0  0  0  1  0  0  0  0  0  0  0  0
    3.6326    3.3475   -0.0143 C   0  0  0  1  0  0  0  0  0  0  0  0
   -4.9032   -4.7399   -1.1738 C   0  0  0  1  0  0  0  0  0  0  0  0
   -4.8785   -4.7582    1.2203 C   0  0  0  1  0  0  0  0  0  0  0  0
   -0.0335    4.2495    0.0248 C   0  0  0  1  0  0  0  0  0  0  0  0
    4.8564    1.1640   -0.0262 C   0  0  0  1  0  0  0  0  0  0  0  0
   -6.2124   -5.1836   -1.1637 C   0  0  0  1  0  0  0  0  0  0  0  0
   -6.1877   -5.2019    1.2304 C   0  0  0  1  0  0  0  0  0  0  0  0
   -6.8554   -5.4123    0.0384 C   0  0  0  1  0  0  0  0  0  0  0  0
   -1.9605   -0.1726   -0.8702 H   0  0  0  1  0  0  0  0  0  0  0  0
   -1.9435   -0.1821    0.9097 H   0  0  0  1  0  0  0  0  0  0  0  0
   -0.8854   -2.4246    0.8875 H   0  0  0  1  0  0  0  0  0  0  0  0
   -0.9024   -2.4150   -0.8923 H   0  0  0  1  0  0  0  0  0  0  0  0
    0.5123   -0.3556   -0.8948 H   0  0  0  1  0  0  0  0  0  0  0  0
    0.5293   -0.3651    0.8851 H   0  0  0  1  0  0  0  0  0  0  0  0
   -3.3046   -2.2077    0.8032 H   0  0  0  1  0  0  0  0  0  0  0  0
   -2.3095   -4.4060   -0.8896 H   0  0  0  1  0  0  0  0  0  0  0  0
   -2.2925   -4.4156    0.8903 H   0  0  0  1  0  0  0  0  0  0  0  0
    2.3193    0.2403   -0.0082 H   0  0  0  1  0  0  0  0  0  0  0  0
    2.5073    5.1648    0.0055 H   0  0  0  1  0  0  0  0  0  0  0  0
    4.5881    3.8509   -0.0200 H   0  0  0  1  0  0  0  0  0  0  0  0
   -4.4008   -4.5613   -2.1130 H   0  0  0  1  0  0  0  0  0  0  0  0
   -4.3566   -4.5945    2.1515 H   0  0  0  1  0  0  0  0  0  0  0  0
   -0.3311    4.4382    1.0562 H   0  0  0  1  0  0  0  0  0  0  0  0
    0.1304    5.1987   -0.4855 H   0  0  0  1  0  0  0  0  0  0  0  0
   -0.8209    3.6942   -0.4848 H   0  0  0  1  0  0  0  0  0  0  0  0
    5.1565    0.9718   -1.0563 H   0  0  0  1  0  0  0  0  0  0  0  0
    5.6412    1.7237    0.4825 H   0  0  0  1  0  0  0  0  0  0  0  0
    4.6944    0.2165    0.4878 H   0  0  0  1  0  0  0  0  0  0  0  0
   -6.7330   -5.3512   -2.0950 H   0  0  0  1  0  0  0  0  0  0  0  0
   -6.6886   -5.3848    2.1696 H   0  0  0  1  0  0  0  0  0  0  0  0
   -7.8784   -5.7586    0.0464 H   0  0  0  1  0  0  0  0  0  0  0  0
  1  5  1  0  0  0  0
  1  7  1  0  0  0  0
  2  4  1  0  0  0  0
  2  6  1  0  0  0  0
  2 27  1  0  0  0  0
  3  4  1  0  0  0  0
  3  5  1  0  0  0  0
  3 21  1  0  0  0  0
  3 22  1  0  0  0  0
  4 23  1  0  0  0  0
  4 24  1  0  0  0  0
  5 25  1  0  0  0  0
  5 26  1  0  0  0  0
  6  8  1  0  0  0  0
  6 28  1  0  0  0  0
  6 29  1  0  0  0  0
  7  9  4  0  0  0  0
  7 10  4  0  0  0  0
  8 14  4  0  0  0  0
  8 15  4  0  0  0  0
  9 12  4  0  0  0  0
  9 16  1  0  0  0  0
 10 11  4  0  0  0  0
 10 30  1  0  0  0  0
 11 13  4  0  0  0  0
 11 17  1  0  0  0  0
 12 13  4  0  0  0  0
 12 31  1  0  0  0  0
 13 32  1  0  0  0  0
 14 18  4  0  0  0  0
 14 33  1  0  0  0  0
 15 19  4  0  0  0  0
 15 34  1  0  0  0  0
 16 35  1  0  0  0  0
 16 36  1  0  0  0  0
 16 37  1  0  0  0  0
 17 38  1  0  0  0  0
 17 39  1  0  0  0  0
 17 40  1  0  0  0  0
 18 20  4  0  0  0  0
 18 41  1  0  0  0  0
 19 20  4  0  0  0  0
 19 42  1  0  0  0  0
 20 43  1  0  0  0  0
M  END
> <Activity>
0.01

> <Mapped(file=2032.csv.activities,property=Cached(PUBCHEM_COMPOUND_CID))>
100

> <MatchIndices>
10 

> <PUBCHEM_ATOM_DEF_STEREO_COUNT>
0

> <PUBCHEM_ATOM_UDEF_STEREO_COUNT>
0

> <PUBCHEM_BONDANNOTATIONS>
11  13  8
11  14  8
12  18  8
12  19  8
13  16  8
14  15  8
15  17  8
16  17  8
18  22  8
19  23  8
22  24  8
23  24  8

> <PUBCHEM_BOND_DEF_STEREO_COUNT>
0

> <PUBCHEM_BOND_UDEF_STEREO_COUNT>
0

> <PUBCHEM_CACTVS_COMPLEXITY>
321

> <PUBCHEM_CACTVS_HBOND_ACCEPTOR>
6

> <PUBCHEM_CACTVS_HBOND_DONOR>
3

> <PUBCHEM_CACTVS_ROTATABLE_BOND>
8

> <PUBCHEM_CACTVS_SUBSKEYS>
AAADceB6OAAAAAAAAAAAAAAAAAAAAAAAAAAwYAAAAAAAAAABQAAAHgAQCAAADAThmAYyDoLABgCIAiDSCAKCCAAgIAAIiIBODIgNJiKEsRuGOCjm0BGJqAeQwDAOQAABAAAIAACAAAIAABAAAAAAAAAAAA==

> <PUBCHEM_CACTVS_TAUTO_COUNT>
1

> <PUBCHEM_CACTVS_TPSA>
95.9

> <PUBCHEM_COMPONENT_COUNT>
2

> <PUBCHEM_COMPOUND_CANONICALIZED>
1

> <PUBCHEM_COMPOUND_CID>
2935256

> <PUBCHEM_COORDINATE_TYPE>
1
5
255

> <PUBCHEM_EXACT_MASS>
359.173273

> <PUBCHEM_HEAVY_ATOM_COUNT>
26

> <PUBCHEM_ISOTOPIC_ATOM_COUNT>
0

> <PUBCHEM_IUPAC_CAS_NAME>
3-(2,5-dimethylphenoxy)-N-(phenylmethyl)-1-propanamine; oxalic acid

> <PUBCHEM_IUPAC_INCHI>
InChI=1S/C18H23NO.C2H2O4/c1-15-9-10-16(2)18(13-15)20-12-6-11-19-14-17-7-4-3-5-8-17;3-1(4)2(5)6/h3-5,7-10,13,19H,6,11-12,14H2,1-2H3;(H,3,4)(H,5,6)

> <PUBCHEM_IUPAC_INCHIKEY>
XALXKHUBXHINFV-UHFFFAOYSA-N

> <PUBCHEM_IUPAC_NAME>
N-benzyl-3-(2,5-dimethylphenoxy)propan-1-amine; oxalic acid

> <PUBCHEM_IUPAC_OPENEYE_NAME>
N-benzyl-3-(2,5-dimethylphenoxy)propan-1-amine; oxalic acid

> <PUBCHEM_IUPAC_SYSTEMATIC_NAME>
3-(2,5-dimethylphenoxy)-N-(phenylmethyl)propan-1-amine; ethanedioic acid

> <PUBCHEM_IUPAC_TRADITIONAL_NAME>
benzyl-[3-(2,5-dimethylphenoxy)propyl]amine; oxalic acid

> <PUBCHEM_MOLECULAR_FORMULA>
C20H25NO5

> <PUBCHEM_MOLECULAR_WEIGHT>
359.4162

> <PUBCHEM_MONOISOTOPIC_WEIGHT>
359.173273

> <PUBCHEM_OPENEYE_CAN_SMILES>
CC1=CC(=C(C=C1)C)OCCCNCC2=CC=CC=C2.C(=O)(C(=O)O)O

> <PUBCHEM_OPENEYE_ISO_SMILES>
CC1=CC(=C(C=C1)C)OCCCNCC2=CC=CC=C2.C(=O)(C(=O)O)O

> <PUBCHEM_TOTAL_CHARGE>
0

$$$$
Largest isolated from Written by BCL::WriteToMDL,695106
JMcorina  04211410293D 1   1.00000     0.00000 
CORINA 3.49 0026  01.06.2011
 46 48  0  0  0  0  0  0  0  0999 V2000
   -0.0161    1.3381    0.0094 O   0  0  0  1  0  0  0  0  0  0  0  0
    1.0565   -0.5939   -0.0112 O   0  0  0  1  0  0  0  0  0  0  0  0
   -3.4906   -5.0501    3.6841 O   0  0  0  1  0  0  0  0  0  0  0  0
   -3.0311   -2.6897    1.2953 N   0  0  0  1  0  0  0  0  0  0  0  0
   -1.2926   -0.7753    0.0102 C   0  0  0  1  0  0  0  0  0  0  0  0
   -0.9938   -2.2770   -0.0007 C   0  0  0  1  0  0  0  0  0  0  0  0
   -2.0859   -0.4299    1.2735 C   0  0  0  1  0  0  0  0  0  0  0  0
   -2.3101   -3.0546    0.0692 C   0  0  0  1  0  0  0  0  0  0  0  0
   -3.3705   -1.2610    1.3065 C   0  0  0  1  0  0  0  0  0  0  0  0
   -4.2326   -3.5176    1.4657 C   0  0  0  1  0  0  0  0  0  0  0  0
    0.0021   -0.0041    0.0020 C   0  0  0  1  0  0  0  0  0  0  0  0
   -4.8081   -3.2910    2.8399 C   0  0  0  1  0  0  0  0  0  0  0  0
   -5.7621   -2.2813    3.0485 C   0  0  0  1  0  0  0  0  0  0  0  0
   -4.4092   -4.0697    3.8885 C   0  0  0  1  0  0  0  0  0  0  0  0
   -6.2924   -2.0826    4.3482 C   0  0  0  1  0  0  0  0  0  0  0  0
   -4.9338   -3.8719    5.1697 C   0  0  0  1  0  0  0  0  0  0  0  0
   -6.2008   -1.4636    1.9931 C   0  0  0  1  0  0  0  0  0  0  0  0
   -5.8540   -2.8990    5.4056 C   0  0  0  1  0  0  0  0  0  0  0  0
    1.2685    2.0148    0.0008 C   0  0  0  1  0  0  0  0  0  0  0  0
   -7.2462   -1.0722    4.5556 C   0  0  0  1  0  0  0  0  0  0  0  0
   -7.1264   -0.4945    2.2318 C   0  0  0  1  0  0  0  0  0  0  0  0
   -7.6475   -0.2994    3.5092 C   0  0  0  1  0  0  0  0  0  0  0  0
    1.0475    3.5287    0.0110 C   0  0  0  1  0  0  0  0  0  0  0  0
   -1.8788   -0.5141   -0.8708 H   0  0  0  1  0  0  0  0  0  0  0  0
   -1.4842   -0.6549    2.1540 H   0  0  0  1  0  0  0  0  0  0  0  0
   -2.3386    0.6304    1.2660 H   0  0  0  1  0  0  0  0  0  0  0  0
   -0.4662   -2.5364   -0.9185 H   0  0  0  1  0  0  0  0  0  0  0  0
   -0.3749   -2.5311    0.8598 H   0  0  0  1  0  0  0  0  0  0  0  0
   -3.9782   -1.0253    0.4328 H   0  0  0  1  0  0  0  0  0  0  0  0
   -3.9308   -1.0279    2.2120 H   0  0  0  1  0  0  0  0  0  0  0  0
   -2.1001   -4.1241    0.0761 H   0  0  0  1  0  0  0  0  0  0  0  0
   -2.9226   -2.8104   -0.7986 H   0  0  0  1  0  0  0  0  0  0  0  0
   -4.9718   -3.2444    0.7126 H   0  0  0  1  0  0  0  0  0  0  0  0
   -3.9686   -4.5689    1.3512 H   0  0  0  1  0  0  0  0  0  0  0  0
   -4.6030   -4.5004    5.9833 H   0  0  0  1  0  0  0  0  0  0  0  0
   -5.8054   -1.6032    0.9978 H   0  0  0  1  0  0  0  0  0  0  0  0
   -6.2503   -2.7572    6.4003 H   0  0  0  1  0  0  0  0  0  0  0  0
    1.8379    1.7248    0.8838 H   0  0  0  1  0  0  0  0  0  0  0  0
    1.8209    1.7343   -0.8960 H   0  0  0  1  0  0  0  0  0  0  0  0
   -7.6592   -0.9096    5.5401 H   0  0  0  1  0  0  0  0  0  0  0  0
   -7.4619    0.1325    1.4189 H   0  0  0  1  0  0  0  0  0  0  0  0
   -8.3809    0.4767    3.6716 H   0  0  0  1  0  0  0  0  0  0  0  0
   -2.5751   -4.7621    3.8024 H   0  0  0  1  0  0  0  0  0  0  0  0
    0.4781    3.8188   -0.8720 H   0  0  0  1  0  0  0  0  0  0  0  0
    0.4951    3.8092    0.9078 H   0  0  0  1  0  0  0  0  0  0  0  0
    2.0118    4.0367    0.0045 H   0  0  0  1  0  0  0  0  0  0  0  0
  1 11  1  0  0  0  0
  1 19  1  0  0  0  0
  2 11  2  0  0  0  0
  3 14  1  0  0  0  0
  3 43  1  0  0  0  0
  4  8  1  0  0  0  0
  4  9  1  0  0  0  0
  4 10  1  0  0  0  0
  5  6  1  0  0  0  0
  5  7  1  0  0  0  0
  5 11  1  0  0  0  0
  5 24  1  0  0  0  0
  6  8  1  0  0  0  0
  6 27  1  0  0  0  0
  6 28  1  0  0  0  0
  7  9  1  0  0  0  0
  7 25  1  0  0  0  0
  7 26  1  0  0  0  0
  8 31  1  0  0  0  0
  8 32  1  0  0  0  0
  9 29  1  0  0  0  0
  9 30  1  0  0  0  0
 10 12  1  0  0  0  0
 10 33  1  0  0  0  0
 10 34  1  0  0  0  0
 12 13  4  0  0  0  0
 12 14  4  0  0  0  0
 13 15  4  0  0  0  0
 13 17  4  0  0  0  0
 14 16  4  0  0  0  0
 15 18  4  0  0  0  0
 15 20  4  0  0  0  0
 16 18  4  0  0  0  0
 16 35  1  0  0  0  0
 17 21  4  0  0  0  0
 17 36  1  0  0  0  0
 18 37  1  0  0  0  0
 19 23  1  0  0  0  0
 19 38  1  0  0  0  0
 19 39  1  0  0  0  0
 20 22  4  0  0  0  0
 20 40  1  0  0  0  0
 21 22  4  0  0  0  0
 21 41  1  0  0  0  0
 22 42  1  0  0  0  0
 23 44  1  0  0  0  0
 23 45  1  0  0  0  0
 23 46  1  0  0  0  0
M  END
> <Activity>
0.01

> <Mapped(file=2032.csv.activities,property=Cached(PUBCHEM_COMPOUND_CID))>
100

> <MatchIndices>
216 

> <PUBCHEM_ATOM_DEF_STEREO_COUNT>
0

> <PUBCHEM_ATOM_UDEF_STEREO_COUNT>
0

> <PUBCHEM_BONDANNOTATIONS>
12  13  8
12  14  8
13  15  8
13  17  8
14  16  8
15  18  8
15  20  8
16  18  8
17  21  8
20  22  8
21  22  8

> <PUBCHEM_BOND_DEF_STEREO_COUNT>
0

> <PUBCHEM_BOND_UDEF_STEREO_COUNT>
0

> <PUBCHEM_CACTVS_COMPLEXITY>
392

> <PUBCHEM_CACTVS_HBOND_ACCEPTOR>
4

> <PUBCHEM_CACTVS_HBOND_DONOR>
1

> <PUBCHEM_CACTVS_ROTATABLE_BOND>
5

> <PUBCHEM_CACTVS_SUBSKEYS>
AAADceB6MAAAAAAAAAAAAAAAAAAAAAAAAAA8YIAAAAAAAADBUAAAHgAACAAADQThmAYyDsMABgCIAiDSCACCAAAgIAAIiAEODIgIJjKCkROGcAhmwBGImAe0wPAOoAADAAAYAABAAAYAADAAAAAAAAAAAA==

> <PUBCHEM_CACTVS_TAUTO_COUNT>
3

> <PUBCHEM_CACTVS_TPSA>
49.8

> <PUBCHEM_COMPONENT_COUNT>
1

> <PUBCHEM_COMPOUND_CANONICALIZED>
1

> <PUBCHEM_COMPOUND_CID>
695106

> <PUBCHEM_COORDINATE_TYPE>
1
5
255

> <PUBCHEM_EXACT_MASS>
313.167794

> <PUBCHEM_HEAVY_ATOM_COUNT>
23

> <PUBCHEM_ISOTOPIC_ATOM_COUNT>
0

> <PUBCHEM_IUPAC_CAS_NAME>
1-[(2-hydroxy-1-naphthalenyl)methyl]-4-piperidinecarboxylic acid ethyl ester

> <PUBCHEM_IUPAC_INCHI>
InChI=1S/C19H23NO3/c1-2-23-19(22)15-9-11-20(12-10-15)13-17-16-6-4-3-5-14(16)7-8-18(17)21/h3-8,15,21H,2,9-13H2,1H3

> <PUBCHEM_IUPAC_INCHIKEY>
LHSFABKSUGCJKP-UHFFFAOYSA-N

> <PUBCHEM_IUPAC_NAME>
ethyl 1-[(2-hydroxynaphthalen-1-yl)methyl]piperidine-4-carboxylate

> <PUBCHEM_IUPAC_OPENEYE_NAME>
ethyl 1-[(2-hydroxy-1-naphthyl)methyl]piperidine-4-carboxylate

> <PUBCHEM_IUPAC_SYSTEMATIC_NAME>
ethyl 1-[(2-oxidanylnaphthalen-1-yl)methyl]piperidine-4-carboxylate

> <PUBCHEM_IUPAC_TRADITIONAL_NAME>
1-[(2-hydroxy-1-naphthyl)methyl]isonipecotic acid ethyl ester

> <PUBCHEM_MOLECULAR_FORMULA>
C19H23NO3

> <PUBCHEM_MOLECULAR_WEIGHT>
313.39082

> <PUBCHEM_MONOISOTOPIC_WEIGHT>
313.167794

> <PUBCHEM_OPENEYE_CAN_SMILES>
CCOC(=O)C1CCN(CC1)CC2=C(C=CC3=CC=CC=C32)O

> <PUBCHEM_OPENEYE_ISO_SMILES>
CCOC(=O)C1CCN(CC1)CC2=C(C=CC3=CC=CC=C32)O

> <PUBCHEM_TOTAL_CHARGE>
0

> <PUBCHEM_XLOGP3_AA>
3.4

$$$$
Largest isolated from Written by BCL::WriteToMDL,2841713
JMcorina  04211410293D 1   1.00000     0.00000 
CORINA 3.49 0026  01.06.2011
 33 34  0  0  0  0  0  0  0  0999 V2000
   -3.3416    3.1560    5.2170 Br  0  0  0  1  0  0  0  0  0  0  0  0
   -0.0172    1.4168    0.0098 S   0  0  0  1  0  0  0  0  0  0  0  0
    0.0021   -0.0041    0.0020 O   0  0  0  1  0  0  0  0  0  0  0  0
    1.1617    2.2101    0.0028 O   0  0  0  1  0  0  0  0  0  0  0  0
   -0.9002    1.8797   -1.3124 N   0  0  0  1  0  0  0  0  0  0  0  0
   -1.1366    3.3017   -1.5741 C   0  0  0  1  0  0  0  0  0  0  0  0
   -1.1436    3.5444   -3.0614 C   0  0  0  1  0  0  0  0  0  0  0  0
   -2.4877    3.7111   -0.9842 C   0  0  0  1  0  0  0  0  0  0  0  0
   -0.9297    1.8941    1.4396 C   0  0  0  1  0  0  0  0  0  0  0  0
   -0.5439    4.6769   -3.5797 C   0  0  0  1  0  0  0  0  0  0  0  0
   -1.7448    2.6317   -3.9078 C   0  0  0  1  0  0  0  0  0  0  0  0
   -1.8430    1.0207    1.9999 C   0  0  0  1  0  0  0  0  0  0  0  0
   -0.7279    3.1398    2.0040 C   0  0  0  1  0  0  0  0  0  0  0  0
   -0.5503    4.8995   -4.9440 C   0  0  0  1  0  0  0  0  0  0  0  0
   -1.7511    2.8543   -5.2721 C   0  0  0  1  0  0  0  0  0  0  0  0
   -1.1561    3.9894   -5.7900 C   0  0  0  1  0  0  0  0  0  0  0  0
   -2.5593    1.3949    3.1212 C   0  0  0  1  0  0  0  0  0  0  0  0
   -1.4434    3.5147    3.1255 C   0  0  0  1  0  0  0  0  0  0  0  0
   -2.3619    2.6434    3.6829 C   0  0  0  1  0  0  0  0  0  0  0  0
   -0.3449    3.8924   -1.1132 H   0  0  0  1  0  0  0  0  0  0  0  0
   -1.2609    1.2094   -1.9136 H   0  0  0  1  0  0  0  0  0  0  0  0
   -2.4826    3.5355    0.0916 H   0  0  0  1  0  0  0  0  0  0  0  0
   -2.6636    4.7690   -1.1789 H   0  0  0  1  0  0  0  0  0  0  0  0
   -3.2793    3.1203   -1.4450 H   0  0  0  1  0  0  0  0  0  0  0  0
   -0.0706    5.3879   -2.9187 H   0  0  0  1  0  0  0  0  0  0  0  0
   -2.2091    1.7445   -3.5032 H   0  0  0  1  0  0  0  0  0  0  0  0
   -1.9971    0.0459    1.5612 H   0  0  0  1  0  0  0  0  0  0  0  0
   -0.0108    3.8201    1.5687 H   0  0  0  1  0  0  0  0  0  0  0  0
   -0.0824    5.7847   -5.3489 H   0  0  0  1  0  0  0  0  0  0  0  0
   -2.2205    2.1410   -5.9334 H   0  0  0  1  0  0  0  0  0  0  0  0
   -1.1614    4.1636   -6.8558 H   0  0  0  1  0  0  0  0  0  0  0  0
   -3.2734    0.7127    3.5584 H   0  0  0  1  0  0  0  0  0  0  0  0
   -1.2860    4.4881    3.5662 H   0  0  0  1  0  0  0  0  0  0  0  0
  1 19  1  0  0  0  0
  2  3  2  0  0  0  0
  2  4  2  0  0  0  0
  2  5  1  0  0  0  0
  2  9  1  0  0  0  0
  5  6  1  0  0  0  0
  5 21  1  0  0  0  0
  6  7  1  0  0  0  0
  6  8  1  0  0  0  0
  6 20  1  0  0  0  0
  7 10  4  0  0  0  0
  7 11  4  0  0  0  0
  8 22  1  0  0  0  0
  8 23  1  0  0  0  0
  8 24  1  0  0  0  0
  9 12  4  0  0  0  0
  9 13  4  0  0  0  0
 10 14  4  0  0  0  0
 10 25  1  0  0  0  0
 11 15  4  0  0  0  0
 11 26  1  0  0  0  0
 12 17  4  0  0  0  0
 12 27  1  0  0  0  0
 13 18  4  0  0  0  0
 13 28  1  0  0  0  0
 14 16  4  0  0  0  0
 14 29  1  0  0  0  0
 15 16  4  0  0  0  0
 15 30  1  0  0  0  0
 16 31  1  0  0  0  0
 17 19  4  0  0  0  0
 17 32  1  0  0  0  0
 18 19  4  0  0  0  0
 18 33  1  0  0  0  0
M  END
> <Activity>
0.01

> <Mapped(file=2032.csv.activities,property=Cached(PUBCHEM_COMPOUND_CID))>
100

> <MatchIndices>
46 

> <PUBCHEM_ATOM_DEF_STEREO_COUNT>
0

> <PUBCHEM_ATOM_UDEF_STEREO_COUNT>
1

> <PUBCHEM_BONDANNOTATIONS>
10  14  8
11  15  8
12  17  8
13  18  8
14  16  8
15  16  8
17  19  8
18  19  8
6  8  3
7  10  8
7  11  8
9  12  8
9  13  8

> <PUBCHEM_BOND_DEF_STEREO_COUNT>
0

> <PUBCHEM_BOND_UDEF_STEREO_COUNT>
0

> <PUBCHEM_CACTVS_COMPLEXITY>
365

> <PUBCHEM_CACTVS_HBOND_ACCEPTOR>
3

> <PUBCHEM_CACTVS_HBOND_DONOR>
1

> <PUBCHEM_CACTVS_ROTATABLE_BOND>
4

> <PUBCHEM_CACTVS_SUBSKEYS>
AAADccByMABAEAAAAAAAAAAAAAAAAAAAAAAwYAAAAAAAAAABQAAAHARQQAABrCjBWAQyAYBAAAKAAiBCAHDCABAgAAQIiJgABKgIICKAkRGAIABgkAAIihcQgIAOAAEAAAAAAAAAAgAAAAAAAAAAAAAAAA==

> <PUBCHEM_CACTVS_TAUTO_COUNT>
1

> <PUBCHEM_CACTVS_TPSA>
54.6

> <PUBCHEM_COMPONENT_COUNT>
1

> <PUBCHEM_COMPOUND_CANONICALIZED>
1

> <PUBCHEM_COMPOUND_CID>
2841713

> <PUBCHEM_COORDINATE_TYPE>
1
5
255

> <PUBCHEM_EXACT_MASS>
338.992862

> <PUBCHEM_HEAVY_ATOM_COUNT>
19

> <PUBCHEM_ISOTOPIC_ATOM_COUNT>
0

> <PUBCHEM_IUPAC_CAS_NAME>
4-bromo-N-(1-phenylethyl)benzenesulfonamide

> <PUBCHEM_IUPAC_INCHI>
InChI=1S/C14H14BrNO2S/c1-11(12-5-3-2-4-6-12)16-19(17,18)14-9-7-13(15)8-10-14/h2-11,16H,1H3

> <PUBCHEM_IUPAC_INCHIKEY>
WJQPTAVUAWEPCK-UHFFFAOYSA-N

> <PUBCHEM_IUPAC_NAME>
4-bromo-N-(1-phenylethyl)benzenesulfonamide

> <PUBCHEM_IUPAC_OPENEYE_NAME>
4-bromo-N-(1-phenylethyl)benzenesulfonamide

> <PUBCHEM_IUPAC_SYSTEMATIC_NAME>
4-bromanyl-N-(1-phenylethyl)benzenesulfonamide

> <PUBCHEM_IUPAC_TRADITIONAL_NAME>
4-bromo-N-(1-phenylethyl)benzenesulfonamide

> <PUBCHEM_MOLECULAR_FORMULA>
C14H14BrNO2S

> <PUBCHEM_MOLECULAR_WEIGHT>
340.23546

> <PUBCHEM_MONOISOTOPIC_WEIGHT>
338.992862

> <PUBCHEM_OPENEYE_CAN_SMILES>
CC(C1=CC=CC=C1)NS(=O)(=O)C2=CC=C(C=C2)Br

> <PUBCHEM_OPENEYE_ISO_SMILES>
CC(C1=CC=CC=C1)NS(=O)(=O)C2=CC=C(C=C2)Br

> <PUBCHEM_TOTAL_CHARGE>
0

> <PUBCHEM_XLOGP3_AA>
3.5

$$$$
Largest isolated from Written by BCL::WriteToMDL,17367564
JMcorina  04211410293D 1   1.00000     0.00000 
CORINA 3.49 0026  01.06.2011
 38 39  0  0  0  0  0  0  0  0999 V2000
   -5.6940   -4.9008    7.3191 Br  0  0  0  1  0  0  0  0  0  0  0  0
   -0.0164    1.3548    0.0095 O   0  0  0  1  0  0  0  0  0  0  0  0
    2.4110   -2.7343   -0.0489 O   0  0  0  1  0  0  0  0  0  0  0  0
   -2.8717   -3.1284    1.3975 N   0  0  0  1  0  0  0  0  0  0  0  0
   -2.4675   -2.8657    0.0098 C   0  0  0  1  0  0  0  0  0  0  0  0
   -1.1717   -2.0964    0.0011 C   0  0  0  1  0  0  0  0  0  0  0  0
   -4.1339   -3.8784    1.4452 C   0  0  0  1  0  0  0  0  0  0  0  0
   -4.5156   -4.1286    2.8814 C   0  0  0  1  0  0  0  0  0  0  0  0
    0.0324   -2.7738   -0.0198 C   0  0  0  1  0  0  0  0  0  0  0  0
   -1.1898   -0.7148    0.0096 C   0  0  0  1  0  0  0  0  0  0  0  0
    0.0021   -0.0041    0.0020 C   0  0  0  1  0  0  0  0  0  0  0  0
    1.2270   -2.0676   -0.0274 C   0  0  0  1  0  0  0  0  0  0  0  0
    1.2116   -0.6814   -0.0136 C   0  0  0  1  0  0  0  0  0  0  0  0
   -5.3017   -3.2138    3.5569 C   0  0  0  1  0  0  0  0  0  0  0  0
   -4.0842   -5.2755    3.5214 C   0  0  0  1  0  0  0  0  0  0  0  0
   -5.6517   -3.4426    4.8743 C   0  0  0  1  0  0  0  0  0  0  0  0
   -4.4341   -5.5053    4.8386 C   0  0  0  1  0  0  0  0  0  0  0  0
   -5.2156   -4.5873    5.5167 C   0  0  0  1  0  0  0  0  0  0  0  0
    1.2479    2.0208    0.0010 C   0  0  0  1  0  0  0  0  0  0  0  0
    3.6010   -1.9432   -0.0556 C   0  0  0  1  0  0  0  0  0  0  0  0
   -2.3320   -3.8117   -0.5144 H   0  0  0  1  0  0  0  0  0  0  0  0
   -3.2405   -2.2813   -0.4893 H   0  0  0  1  0  0  0  0  0  0  0  0
   -4.9184   -3.3010    0.9560 H   0  0  0  1  0  0  0  0  0  0  0  0
   -4.0099   -4.8315    0.9309 H   0  0  0  1  0  0  0  0  0  0  0  0
   -2.1437   -3.6133    1.9005 H   0  0  0  1  0  0  0  0  0  0  0  0
    0.0439   -3.8536   -0.0298 H   0  0  0  1  0  0  0  0  0  0  0  0
   -2.1323   -0.1876    0.0218 H   0  0  0  1  0  0  0  0  0  0  0  0
    2.1402   -0.1300   -0.0196 H   0  0  0  1  0  0  0  0  0  0  0  0
   -5.6422   -2.3200    3.0552 H   0  0  0  1  0  0  0  0  0  0  0  0
   -3.4740   -5.9922    2.9918 H   0  0  0  1  0  0  0  0  0  0  0  0
   -6.2653   -2.7275    5.4021 H   0  0  0  1  0  0  0  0  0  0  0  0
   -4.0967   -6.4012    5.3386 H   0  0  0  1  0  0  0  0  0  0  0  0
    1.0905    3.0993    0.0083 H   0  0  0  1  0  0  0  0  0  0  0  0
    1.8173    1.7307    0.8840 H   0  0  0  1  0  0  0  0  0  0  0  0
    1.8003    1.7403   -0.8958 H   0  0  0  1  0  0  0  0  0  0  0  0
    3.6302   -1.3232    0.8404 H   0  0  0  1  0  0  0  0  0  0  0  0
    4.4724   -2.5978   -0.0730 H   0  0  0  1  0  0  0  0  0  0  0  0
    3.6082   -1.3052   -0.9393 H   0  0  0  1  0  0  0  0  0  0  0  0
  1 18  1  0  0  0  0
  2 11  1  0  0  0  0
  2 19  1  0  0  0  0
  3 12  1  0  0  0  0
  3 20  1  0  0  0  0
  4  5  1  0  0  0  0
  4  7  1  0  0  0  0
  4 25  1  0  0  0  0
  5  6  1  0  0  0  0
  5 21  1  0  0  0  0
  5 22  1  0  0  0  0
  6  9  4  0  0  0  0
  6 10  4  0  0  0  0
  7  8  1  0  0  0  0
  7 23  1  0  0  0  0
  7 24  1  0  0  0  0
  8 14  4  0  0  0  0
  8 15  4  0  0  0  0
  9 12  4  0  0  0  0
  9 26  1  0  0  0  0
 10 11  4  0  0  0  0
 10 27  1  0  0  0  0
 11 13  4  0  0  0  0
 12 13  4  0  0  0  0
 13 28  1  0  0  0  0
 14 16  4  0  0  0  0
 14 29  1  0  0  0  0
 15 17  4  0  0  0  0
 15 30  1  0  0  0  0
 16 18  4  0  0  0  0
 16 31  1  0  0  0  0
 17 18  4  0  0  0  0
 17 32  1  0  0  0  0
 19 33  1  0  0  0  0
 19 34  1  0  0  0  0
 19 35  1  0  0  0  0
 20 36  1  0  0  0  0
 20 37  1  0  0  0  0
 20 38  1  0  0  0  0
M  END
> <Activity>
0.01

> <Mapped(file=2032.csv.activities,property=Cached(PUBCHEM_COMPOUND_CID))>
100

> <MatchIndices>
13 

> <PUBCHEM_ATOM_DEF_STEREO_COUNT>
0

> <PUBCHEM_ATOM_UDEF_STEREO_COUNT>
0

> <PUBCHEM_BONDANNOTATIONS>
10  13  8
10  14  8
12  18  8
12  19  8
13  16  8
14  15  8
15  17  8
16  17  8
18  20  8
19  21  8
20  22  8
21  22  8

> <PUBCHEM_BOND_DEF_STEREO_COUNT>
0

> <PUBCHEM_BOND_UDEF_STEREO_COUNT>
0

> <PUBCHEM_CACTVS_COMPLEXITY>
329

> <PUBCHEM_CACTVS_HBOND_ACCEPTOR>
7

> <PUBCHEM_CACTVS_HBOND_DONOR>
3

> <PUBCHEM_CACTVS_ROTATABLE_BOND>
7

> <PUBCHEM_CACTVS_SUBSKEYS>
AAADceB6OAAAEAAAAAAAAAAAAAAAAAAAAAAwYAAAAAAAAAABQAAAHgBQCAABrATBmAYyDoLABgCIAiDSCAKCCAAgIAQIiIBODKgNJyKEsRuEMChlwBWJqhew4BwOAgABCAAAAAAEAAIQAAAAAAAAAAAAAA==

> <PUBCHEM_CACTVS_TAUTO_COUNT>
1

> <PUBCHEM_CACTVS_TPSA>
105

> <PUBCHEM_COMPONENT_COUNT>
2

> <PUBCHEM_COMPOUND_CANONICALIZED>
1

> <PUBCHEM_COMPOUND_CID>
17367564

> <PUBCHEM_COORDINATE_TYPE>
1
5
255

> <PUBCHEM_EXACT_MASS>
425.047399

> <PUBCHEM_HEAVY_ATOM_COUNT>
26

> <PUBCHEM_ISOTOPIC_ATOM_COUNT>
0

> <PUBCHEM_IUPAC_CAS_NAME>
1-(4-bromophenyl)-N-[(3,5-dimethoxyphenyl)methyl]methanamine; oxalic acid

> <PUBCHEM_IUPAC_INCHI>
InChI=1S/C16H18BrNO2.C2H2O4/c1-19-15-7-13(8-16(9-15)20-2)11-18-10-12-3-5-14(17)6-4-12;3-1(4)2(5)6/h3-9,18H,10-11H2,1-2H3;(H,3,4)(H,5,6)

> <PUBCHEM_IUPAC_INCHIKEY>
LEQWTMYSKUEWCU-UHFFFAOYSA-N

> <PUBCHEM_IUPAC_NAME>
1-(4-bromophenyl)-N-[(3,5-dimethoxyphenyl)methyl]methanamine; oxalic acid

> <PUBCHEM_IUPAC_OPENEYE_NAME>
1-(4-bromophenyl)-N-[(3,5-dimethoxyphenyl)methyl]methanamine; oxalic acid

> <PUBCHEM_IUPAC_SYSTEMATIC_NAME>
1-(4-bromophenyl)-N-[(3,5-dimethoxyphenyl)methyl]methanamine; ethanedioic acid

> <PUBCHEM_IUPAC_TRADITIONAL_NAME>
(4-bromobenzyl)-(3,5-dimethoxybenzyl)amine; oxalic acid

> <PUBCHEM_MOLECULAR_FORMULA>
C18H20BrNO6

> <PUBCHEM_MOLECULAR_WEIGHT>
426.2585

> <PUBCHEM_MONOISOTOPIC_WEIGHT>
425.047399

> <PUBCHEM_OPENEYE_CAN_SMILES>
COC1=CC(=CC(=C1)CNCC2=CC=C(C=C2)Br)OC.C(=O)(C(=O)O)O

> <PUBCHEM_OPENEYE_ISO_SMILES>
COC1=CC(=CC(=C1)CNCC2=CC=C(C=C2)Br)OC.C(=O)(C(=O)O)O

> <PUBCHEM_TOTAL_CHARGE>
0

$$$$
Largest isolated from Written by BCL::WriteToMDL,3830432
JMcorina  04211410293D 1   1.00000     0.00000 
CORINA 3.49 0026  01.06.2011
 43 44  0  0  0  0  0  0  0  0999 V2000
    4.4373   -8.3908    3.8876 Br  0  0  0  1  0  0  0  0  0  0  0  0
   -0.0164    1.3548    0.0095 O   0  0  0  1  0  0  0  0  0  0  0  0
    1.3410   -6.7850   -0.9034 N   0  0  0  1  0  0  0  0  0  0  0  0
    0.0737   -6.3095   -1.4740 C   0  0  0  1  0  0  0  0  0  0  0  0
    0.0529   -4.7797   -1.4661 C   0  0  0  1  0  0  0  0  0  0  0  0
    0.0600   -4.2770   -0.0210 C   0  0  0  1  0  0  0  0  0  0  0  0
   -0.0591   -6.8140   -2.9123 C   0  0  0  1  0  0  0  0  0  0  0  0
    1.1942   -8.1374   -0.3488 C   0  0  0  1  0  0  0  0  0  0  0  0
    0.0396   -2.7702   -0.0132 C   0  0  0  1  0  0  0  0  0  0  0  0
    2.5115   -8.5903    0.2262 C   0  0  0  1  0  0  0  0  0  0  0  0
   -1.1677   -2.0964    0.0019 C   0  0  0  1  0  0  0  0  0  0  0  0
    1.2282   -2.0638   -0.0155 C   0  0  0  1  0  0  0  0  0  0  0  0
    2.8137   -8.3306    1.5494 C   0  0  0  1  0  0  0  0  0  0  0  0
    3.4153   -9.2706   -0.5689 C   0  0  0  1  0  0  0  0  0  0  0  0
   -1.1891   -0.7152    0.0096 C   0  0  0  1  0  0  0  0  0  0  0  0
    1.2122   -0.6825   -0.0079 C   0  0  0  1  0  0  0  0  0  0  0  0
    0.0021   -0.0041    0.0020 C   0  0  0  1  0  0  0  0  0  0  0  0
    4.0230   -8.7465    2.0771 C   0  0  0  1  0  0  0  0  0  0  0  0
    4.6237   -9.6863   -0.0421 C   0  0  0  1  0  0  0  0  0  0  0  0
    4.9291   -9.4220    1.2800 C   0  0  0  1  0  0  0  0  0  0  0  0
    1.2479    2.0208    0.0010 C   0  0  0  1  0  0  0  0  0  0  0  0
   -0.7574   -6.6873   -0.8783 H   0  0  0  1  0  0  0  0  0  0  0  0
    0.9328   -4.4017   -1.9866 H   0  0  0  1  0  0  0  0  0  0  0  0
   -0.8469   -4.4259   -1.9694 H   0  0  0  1  0  0  0  0  0  0  0  0
   -0.8199   -4.6550    0.4995 H   0  0  0  1  0  0  0  0  0  0  0  0
    0.9598   -4.6308    0.4823 H   0  0  0  1  0  0  0  0  0  0  0  0
    2.0806   -6.7537   -1.5890 H   0  0  0  1  0  0  0  0  0  0  0  0
   -0.9995   -6.4612   -3.3357 H   0  0  0  1  0  0  0  0  0  0  0  0
    0.7719   -6.4362   -3.5080 H   0  0  0  1  0  0  0  0  0  0  0  0
   -0.0443   -7.9038   -2.9180 H   0  0  0  1  0  0  0  0  0  0  0  0
    0.4389   -8.1277    0.4371 H   0  0  0  1  0  0  0  0  0  0  0  0
    0.8877   -8.8228   -1.1389 H   0  0  0  1  0  0  0  0  0  0  0  0
   -2.0947   -2.6504    0.0075 H   0  0  0  1  0  0  0  0  0  0  0  0
    2.1700   -2.5924   -0.0228 H   0  0  0  1  0  0  0  0  0  0  0  0
    2.1059   -7.8028    2.1715 H   0  0  0  1  0  0  0  0  0  0  0  0
    3.1768   -9.4776   -1.6017 H   0  0  0  1  0  0  0  0  0  0  0  0
   -2.1324   -0.1893    0.0210 H   0  0  0  1  0  0  0  0  0  0  0  0
    2.1409   -0.1312   -0.0093 H   0  0  0  1  0  0  0  0  0  0  0  0
    5.3292  -10.2180   -0.6634 H   0  0  0  1  0  0  0  0  0  0  0  0
    5.8734   -9.7468    1.6915 H   0  0  0  1  0  0  0  0  0  0  0  0
    1.0905    3.0993    0.0083 H   0  0  0  1  0  0  0  0  0  0  0  0
    1.8173    1.7308    0.8840 H   0  0  0  1  0  0  0  0  0  0  0  0
    1.8003    1.7403   -0.8958 H   0  0  0  1  0  0  0  0  0  0  0  0
  1 18  1  0  0  0  0
  2 17  1  0  0  0  0
  2 21  1  0  0  0  0
  3  4  1  0  0  0  0
  3  8  1  0  0  0  0
  3 27  1  0  0  0  0
  4  5  1  0  0  0  0
  4  7  1  0  0  0  0
  4 22  1  0  0  0  0
  5  6  1  0  0  0  0
  5 23  1  0  0  0  0
  5 24  1  0  0  0  0
  6  9  1  0  0  0  0
  6 25  1  0  0  0  0
  6 26  1  0  0  0  0
  7 28  1  0  0  0  0
  7 29  1  0  0  0  0
  7 30  1  0  0  0  0
  8 10  1  0  0  0  0
  8 31  1  0  0  0  0
  8 32  1  0  0  0  0
  9 11  4  0  0  0  0
  9 12  4  0  0  0  0
 10 13  4  0  0  0  0
 10 14  4  0  0  0  0
 11 15  4  0  0  0  0
 11 33  1  0  0  0  0
 12 16  4  0  0  0  0
 12 34  1  0  0  0  0
 13 18  4  0  0  0  0
 13 35  1  0  0  0  0
 14 19  4  0  0  0  0
 14 36  1  0  0  0  0
 15 17  4  0  0  0  0
 15 37  1  0  0  0  0
 16 17  4  0  0  0  0
 16 38  1  0  0  0  0
 18 20  4  0  0  0  0
 19 20  4  0  0  0  0
 19 39  1  0  0  0  0
 20 40  1  0  0  0  0
 21 41  1  0  0  0  0
 21 42  1  0  0  0  0
 21 43  1  0  0  0  0
M  END
> <Activity>
0.01

> <Mapped(file=2032.csv.activities,property=Cached(PUBCHEM_COMPOUND_CID))>
100

> <MatchIndices>
49 

> <PUBCHEM_ATOM_DEF_STEREO_COUNT>
0

> <PUBCHEM_ATOM_UDEF_STEREO_COUNT>
1

> <PUBCHEM_BONDANNOTATIONS>
10  13  8
10  14  8
11  15  8
12  16  8
13  18  8
14  19  8
15  17  8
16  17  8
18  20  8
19  20  8
4  7  3
9  11  8
9  12  8

> <PUBCHEM_BOND_DEF_STEREO_COUNT>
0

> <PUBCHEM_BOND_UDEF_STEREO_COUNT>
0

> <PUBCHEM_CACTVS_COMPLEXITY>
278

> <PUBCHEM_CACTVS_HBOND_ACCEPTOR>
2

> <PUBCHEM_CACTVS_HBOND_DONOR>
1

> <PUBCHEM_CACTVS_ROTATABLE_BOND>
7

> <PUBCHEM_CACTVS_SUBSKEYS>
AAADceB6IAAAEAAAAAAAAAAAAAAAAAAAAAAwYAAAAAAAAAABQAAAHgBQAAABrCzBmAYyBoLABACAAiBCAACCCAAgIAQIiIAODKgMJiKEsRuEMChk0BGIqheQwKAOIAAAEAAAAABAAAAgAAAAAAAAAAAAAA==

> <PUBCHEM_CACTVS_TAUTO_COUNT>
1

> <PUBCHEM_CACTVS_TPSA>
21.3

> <PUBCHEM_COMPONENT_COUNT>
1

> <PUBCHEM_COMPOUND_CANONICALIZED>
1

> <PUBCHEM_COMPOUND_CID>
3830432

> <PUBCHEM_COORDINATE_TYPE>
1
5
255

> <PUBCHEM_EXACT_MASS>
347.088476

> <PUBCHEM_HEAVY_ATOM_COUNT>
21

> <PUBCHEM_ISOTOPIC_ATOM_COUNT>
0

> <PUBCHEM_IUPAC_CAS_NAME>
N-[(3-bromophenyl)methyl]-4-(4-methoxyphenyl)-2-butanamine

> <PUBCHEM_IUPAC_INCHI>
InChI=1S/C18H22BrNO/c1-14(20-13-16-4-3-5-17(19)12-16)6-7-15-8-10-18(21-2)11-9-15/h3-5,8-12,14,20H,6-7,13H2,1-2H3

> <PUBCHEM_IUPAC_INCHIKEY>
CDYLBYNFLUAGRB-UHFFFAOYSA-N

> <PUBCHEM_IUPAC_NAME>
N-[(3-bromophenyl)methyl]-4-(4-methoxyphenyl)butan-2-amine

> <PUBCHEM_IUPAC_OPENEYE_NAME>
N-[(3-bromophenyl)methyl]-4-(4-methoxyphenyl)butan-2-amine

> <PUBCHEM_IUPAC_SYSTEMATIC_NAME>
N-[(3-bromophenyl)methyl]-4-(4-methoxyphenyl)butan-2-amine

> <PUBCHEM_IUPAC_TRADITIONAL_NAME>
(3-bromobenzyl)-[3-(4-methoxyphenyl)-1-methyl-propyl]amine

> <PUBCHEM_MOLECULAR_FORMULA>
C18H22BrNO

> <PUBCHEM_MOLECULAR_WEIGHT>
348.27738

> <PUBCHEM_MONOISOTOPIC_WEIGHT>
347.088476

> <PUBCHEM_OPENEYE_CAN_SMILES>
CC(CCC1=CC=C(C=C1)OC)NCC2=CC(=CC=C2)Br

> <PUBCHEM_OPENEYE_ISO_SMILES>
CC(CCC1=CC=C(C=C1)OC)NCC2=CC(=CC=C2)Br

> <PUBCHEM_TOTAL_CHARGE>
0

> <PUBCHEM_XLOGP3_AA>
4.7

$$$$
Largest isolated from Written by BCL::WriteToMDL,656332
JMcorina  04211410293D 1   1.00000     0.00000 
CORINA 3.49 0026  01.06.2011
 48 50  0  0  0  0  0  0  0  0999 V2000
   -0.0225    1.8057    0.0120 S   0  0  0  1  0  0  0  0  0  0  0  0
    5.1096    4.6196   -1.7278 S   0  0  0  1  0  0  0  0  0  0  0  0
   -1.6391   -1.8486    0.0078 O   0  0  0  1  0  0  0  0  0  0  0  0
   -2.3406    0.2469    0.0257 O   0  0  0  1  0  0  0  0  0  0  0  0
    2.2902    3.3495   -0.0018 O   0  0  0  1  0  0  0  0  0  0  0  0
    2.6699    1.2436   -0.0163 N   0  0  0  1  0  0  0  0  0  0  0  0
    3.8074    1.8446   -0.0237 N   0  0  0  1  0  0  0  0  0  0  0  0
    6.9336    6.4223   -2.4799 N   0  0  0  1  0  0  0  0  0  0  0  0
    6.6828    6.1439   -0.1967 N   0  0  0  1  0  0  0  0  0  0  0  0
   -3.0257   -2.2792    0.0187 C   0  0  0  1  0  0  0  0  0  0  0  0
   -3.1492   -3.6196   -0.7086 C   0  0  0  1  0  0  0  0  0  0  0  0
   -3.4990   -2.4382    1.4650 C   0  0  0  1  0  0  0  0  0  0  0  0
   -4.6104   -4.0733   -0.6971 C   0  0  0  1  0  0  0  0  0  0  0  0
   -4.9601   -2.8919    1.4765 C   0  0  0  1  0  0  0  0  0  0  0  0
   -5.0836   -4.2323    0.7492 C   0  0  0  1  0  0  0  0  0  0  0  0
   -1.4117   -0.5257    0.0127 C   0  0  0  1  0  0  0  0  0  0  0  0
    0.0021   -0.0041    0.0020 C   0  0  0  1  0  0  0  0  0  0  0  0
    1.7084    2.1353   -0.0028 C   0  0  0  1  0  0  0  0  0  0  0  0
    3.6200    3.1317   -0.0152 C   0  0  0  1  0  0  0  0  0  0  0  0
    4.6950    4.1879   -0.0196 C   0  0  0  1  0  0  0  0  0  0  0  0
    7.8693    7.3396   -2.3006 C   0  0  0  1  0  0  0  0  0  0  0  0
    7.6109    7.0528    0.0514 C   0  0  0  1  0  0  0  0  0  0  0  0
    6.3520    5.8361   -1.4429 C   0  0  0  1  0  0  0  0  0  0  0  0
    8.2392    7.6853   -1.0101 C   0  0  0  1  0  0  0  0  0  0  0  0
    8.5259    8.0009   -3.4850 C   0  0  0  1  0  0  0  0  0  0  0  0
    7.9814    7.3965    1.4712 C   0  0  0  1  0  0  0  0  0  0  0  0
   -3.6415   -1.5342   -0.4853 H   0  0  0  1  0  0  0  0  0  0  0  0
   -2.8121   -3.5063   -1.7389 H   0  0  0  1  0  0  0  0  0  0  0  0
   -2.5335   -4.3645   -0.2046 H   0  0  0  1  0  0  0  0  0  0  0  0
   -2.8832   -3.1831    1.9689 H   0  0  0  1  0  0  0  0  0  0  0  0
   -3.4110   -1.4832    1.9831 H   0  0  0  1  0  0  0  0  0  0  0  0
   -5.2261   -3.3284   -1.2011 H   0  0  0  1  0  0  0  0  0  0  0  0
   -4.6984   -5.0282   -1.2152 H   0  0  0  1  0  0  0  0  0  0  0  0
   -5.2973   -3.0052    2.5068 H   0  0  0  1  0  0  0  0  0  0  0  0
   -5.5759   -2.1470    0.9725 H   0  0  0  1  0  0  0  0  0  0  0  0
   -6.1246   -4.5555    0.7574 H   0  0  0  1  0  0  0  0  0  0  0  0
   -4.4679   -4.9772    1.2531 H   0  0  0  1  0  0  0  0  0  0  0  0
    0.5123   -0.3556   -0.8948 H   0  0  0  1  0  0  0  0  0  0  0  0
    0.5293   -0.3651    0.8851 H   0  0  0  1  0  0  0  0  0  0  0  0
    5.5826    3.8050    0.4841 H   0  0  0  1  0  0  0  0  0  0  0  0
    4.3352    5.0747    0.5022 H   0  0  0  1  0  0  0  0  0  0  0  0
    9.0007    8.4309   -0.8355 H   0  0  0  1  0  0  0  0  0  0  0  0
    7.9638    8.8931   -3.7607 H   0  0  0  1  0  0  0  0  0  0  0  0
    9.5469    8.2804   -3.2252 H   0  0  0  1  0  0  0  0  0  0  0  0
    8.5418    7.3073   -4.3257 H   0  0  0  1  0  0  0  0  0  0  0  0
    8.7911    6.7466    1.8029 H   0  0  0  1  0  0  0  0  0  0  0  0
    8.3062    8.4358    1.5205 H   0  0  0  1  0  0  0  0  0  0  0  0
    7.1147    7.2557    2.1171 H   0  0  0  1  0  0  0  0  0  0  0  0
  1 17  1  0  0  0  0
  1 18  1  0  0  0  0
  2 20  1  0  0  0  0
  2 23  1  0  0  0  0
  3 10  1  0  0  0  0
  3 16  1  0  0  0  0
  4 16  2  0  0  0  0
  5 18  4  0  0  0  0
  5 19  4  0  0  0  0
  6  7  4  0  0  0  0
  6 18  4  0  0  0  0
  7 19  4  0  0  0  0
  8 21  4  0  0  0  0
  8 23  4  0  0  0  0
  9 22  4  0  0  0  0
  9 23  4  0  0  0  0
 10 11  1  0  0  0  0
 10 12  1  0  0  0  0
 10 27  1  0  0  0  0
 11 13  1  0  0  0  0
 11 28  1  0  0  0  0
 11 29  1  0  0  0  0
 12 14  1  0  0  0  0
 12 30  1  0  0  0  0
 12 31  1  0  0  0  0
 13 15  1  0  0  0  0
 13 32  1  0  0  0  0
 13 33  1  0  0  0  0
 14 15  1  0  0  0  0
 14 34  1  0  0  0  0
 14 35  1  0  0  0  0
 15 36  1  0  0  0  0
 15 37  1  0  0  0  0
 16 17  1  0  0  0  0
 17 38  1  0  0  0  0
 17 39  1  0  0  0  0
 19 20  1  0  0  0  0
 20 40  1  0  0  0  0
 20 41  1  0  0  0  0
 21 24  4  0  0  0  0
 21 25  1  0  0  0  0
 22 24  4  0  0  0  0
 22 26  1  0  0  0  0
 24 42  1  0  0  0  0
 25 43  1  0  0  0  0
 25 44  1  0  0  0  0
 25 45  1  0  0  0  0
 26 46  1  0  0  0  0
 26 47  1  0  0  0  0
 26 48  1  0  0  0  0
M  END
> <Activity>
0.01

> <Mapped(file=2032.csv.activities,property=Cached(PUBCHEM_COMPOUND_CID))>
100

> <MatchIndices>
4 

> <PUBCHEM_ATOM_DEF_STEREO_COUNT>
0

> <PUBCHEM_ATOM_UDEF_STEREO_COUNT>
0

> <PUBCHEM_BONDANNOTATIONS>
21  24  8
22  24  8
5  18  8
5  19  8
6  18  8
6  7  8
7  19  8
8  21  8
8  23  8
9  22  8
9  23  8

> <PUBCHEM_BOND_DEF_STEREO_COUNT>
0

> <PUBCHEM_BOND_UDEF_STEREO_COUNT>
0

> <PUBCHEM_CACTVS_COMPLEXITY>
444

> <PUBCHEM_CACTVS_HBOND_ACCEPTOR>
5

> <PUBCHEM_CACTVS_HBOND_DONOR>
0

> <PUBCHEM_CACTVS_ROTATABLE_BOND>
8

> <PUBCHEM_CACTVS_SUBSKEYS>
AAADceB7sABgAAAAAAAAAAAAAAAAAWAAAAA8QAAAAAAAAAAB4AAAHgQIAAAACByl1gKzmJYIFEiqASXyfACQ0ClpArATGCAwZBiAKAJAydAOBAhsCAJISCOAQAAAAAAAAAAAAAAAAAAAAAAAAAAAAAAAAA==

> <PUBCHEM_CACTVS_TAUTO_COUNT>
1

> <PUBCHEM_CACTVS_TPSA>
142

> <PUBCHEM_COMPONENT_COUNT>
1

> <PUBCHEM_COMPOUND_CANONICALIZED>
1

> <PUBCHEM_COMPOUND_CID>
656332

> <PUBCHEM_COORDINATE_TYPE>
1
5
255

> <PUBCHEM_EXACT_MASS>
394.113333

> <PUBCHEM_HEAVY_ATOM_COUNT>
26

> <PUBCHEM_ISOTOPIC_ATOM_COUNT>
0

> <PUBCHEM_IUPAC_CAS_NAME>
2-[[5-[[(4,6-dimethyl-2-pyrimidinyl)thio]methyl]-1,3,4-oxadiazol-2-yl]thio]acetic acid cyclohexyl ester

> <PUBCHEM_IUPAC_INCHI>
InChI=1S/C17H22N4O3S2/c1-11-8-12(2)19-16(18-11)25-9-14-20-21-17(24-14)26-10-15(22)23-13-6-4-3-5-7-13/h8,13H,3-7,9-10H2,1-2H3

> <PUBCHEM_IUPAC_INCHIKEY>
MOBVEOYFWXRYPX-UHFFFAOYSA-N

> <PUBCHEM_IUPAC_NAME>
cyclohexyl 2-[[5-[(4,6-dimethylpyrimidin-2-yl)sulfanylmethyl]-1,3,4-oxadiazol-2-yl]sulfanyl]acetate

> <PUBCHEM_IUPAC_OPENEYE_NAME>
cyclohexyl 2-[[5-[(4,6-dimethylpyrimidin-2-yl)sulfanylmethyl]-1,3,4-oxadiazol-2-yl]sulfanyl]acetate

> <PUBCHEM_IUPAC_SYSTEMATIC_NAME>
cyclohexyl 2-[[5-[(4,6-dimethylpyrimidin-2-yl)sulfanylmethyl]-1,3,4-oxadiazol-2-yl]sulfanyl]ethanoate

> <PUBCHEM_IUPAC_TRADITIONAL_NAME>
2-[[5-[[(4,6-dimethylpyrimidin-2-yl)thio]methyl]-1,3,4-oxadiazol-2-yl]thio]acetic acid cyclohexyl ester

> <PUBCHEM_MOLECULAR_FORMULA>
C17H22N4O3S2

> <PUBCHEM_MOLECULAR_WEIGHT>
394.51158

> <PUBCHEM_MONOISOTOPIC_WEIGHT>
394.113333

> <PUBCHEM_OPENEYE_CAN_SMILES>
CC1=CC(=NC(=N1)SCC2=NN=C(O2)SCC(=O)OC3CCCCC3)C

> <PUBCHEM_OPENEYE_ISO_SMILES>
CC1=CC(=NC(=N1)SCC2=NN=C(O2)SCC(=O)OC3CCCCC3)C

> <PUBCHEM_TOTAL_CHARGE>
0

> <PUBCHEM_XLOGP3_AA>
3.8

$$$$
Largest isolated from Written by BCL::WriteToMDL,2805173
JMcorina  04211410293D 1   1.00000     0.00000 
CORINA 3.49 0026  01.06.2011
 33 35  0  0  0  0  0  0  0  0999 V2000
   -1.2951   -2.3125   -0.2036 Cl  0  0  0  1  0  0  0  0  0  0  0  0
    0.0365    1.2837    0.0085 O   0  0  0  1  0  0  0  0  0  0  0  0
    4.2022    0.5801    0.9624 O   0  0  0  1  0  0  0  0  0  0  0  0
   -0.0568    0.0809    0.0190 N   0  0  0  1  0  0  0  0  0  0  0  0
    2.0961    0.5992   -0.0370 C   0  0  0  1  0  0  0  0  0  0  0  0
    1.1131   -0.5049   -0.0055 C   0  0  0  1  0  0  0  0  0  0  0  0
    1.3926   -1.9612   -0.0019 C   0  0  0  1  0  0  0  0  0  0  0  0
    1.2983    1.7177   -0.0252 C   0  0  0  1  0  0  0  0  0  0  0  0
    3.5652    0.5197   -0.0719 C   0  0  0  1  0  0  0  0  0  0  0  0
    4.2667    0.3665   -1.3642 C   0  0  0  1  0  0  0  0  0  0  0  0
    0.3430   -2.8760   -0.0900 C   0  0  0  1  0  0  0  0  0  0  0  0
    2.7052   -2.4214    0.0836 C   0  0  0  1  0  0  0  0  0  0  0  0
    1.7576    3.1528   -0.0469 C   0  0  0  1  0  0  0  0  0  0  0  0
    5.6618    0.3962   -1.4126 C   0  0  0  1  0  0  0  0  0  0  0  0
    3.5373    0.1858   -2.5410 C   0  0  0  1  0  0  0  0  0  0  0  0
    0.6101   -4.2312   -0.0861 C   0  0  0  1  0  0  0  0  0  0  0  0
    2.9596   -3.7779    0.0866 C   0  0  0  1  0  0  0  0  0  0  0  0
    1.9149   -4.6809    0.0053 C   0  0  0  1  0  0  0  0  0  0  0  0
    6.3100    0.2527   -2.6217 C   0  0  0  1  0  0  0  0  0  0  0  0
    4.1982    0.0436   -3.7433 C   0  0  0  1  0  0  0  0  0  0  0  0
    5.5808    0.0801   -3.7850 C   0  0  0  1  0  0  0  0  0  0  0  0
    3.5221   -1.7177    0.1472 H   0  0  0  1  0  0  0  0  0  0  0  0
    0.8958    3.8117    0.0589 H   0  0  0  1  0  0  0  0  0  0  0  0
    2.4501    3.3252    0.7770 H   0  0  0  1  0  0  0  0  0  0  0  0
    2.2591    3.3595   -0.9924 H   0  0  0  1  0  0  0  0  0  0  0  0
    6.2321    0.5315   -0.5055 H   0  0  0  1  0  0  0  0  0  0  0  0
    2.4581    0.1571   -2.5098 H   0  0  0  1  0  0  0  0  0  0  0  0
   -0.2012   -4.9408   -0.1542 H   0  0  0  1  0  0  0  0  0  0  0  0
    3.9766   -4.1352    0.1525 H   0  0  0  1  0  0  0  0  0  0  0  0
    2.1192   -5.7414    0.0083 H   0  0  0  1  0  0  0  0  0  0  0  0
    7.3891    0.2755   -2.6606 H   0  0  0  1  0  0  0  0  0  0  0  0
    3.6352   -0.0962   -4.6543 H   0  0  0  1  0  0  0  0  0  0  0  0
    6.0933   -0.0314   -4.7291 H   0  0  0  1  0  0  0  0  0  0  0  0
  1 11  1  0  0  0  0
  2  4  4  0  0  0  0
  2  8  4  0  0  0  0
  3  9  2  0  0  0  0
  4  6  4  0  0  0  0
  5  6  4  0  0  0  0
  5  8  4  0  0  0  0
  5  9  1  0  0  0  0
  6  7  1  0  0  0  0
  7 11  4  0  0  0  0
  7 12  4  0  0  0  0
  8 13  1  0  0  0  0
  9 10  1  0  0  0  0
 10 14  4  0  0  0  0
 10 15  4  0  0  0  0
 11 16  4  0  0  0  0
 12 17  4  0  0  0  0
 12 22  1  0  0  0  0
 13 23  1  0  0  0  0
 13 24  1  0  0  0  0
 13 25  1  0  0  0  0
 14 19  4  0  0  0  0
 14 26  1  0  0  0  0
 15 20  4  0  0  0  0
 15 27  1  0  0  0  0
 16 18  4  0  0  0  0
 16 28  1  0  0  0  0
 17 18  4  0  0  0  0
 17 29  1  0  0  0  0
 18 30  1  0  0  0  0
 19 21  4  0  0  0  0
 19 31  1  0  0  0  0
 20 21  4  0  0  0  0
 20 32  1  0  0  0  0
 21 33  1  0  0  0  0
M  END
> <Activity>
0.01

> <Mapped(file=2032.csv.activities,property=Cached(PUBCHEM_COMPOUND_CID))>
100

> <MatchIndices>
181 

> <PUBCHEM_ATOM_DEF_STEREO_COUNT>
0

> <PUBCHEM_ATOM_UDEF_STEREO_COUNT>
0

> <PUBCHEM_BONDANNOTATIONS>
10  14  8
10  15  8
11  16  8
12  17  8
14  19  8
15  20  8
16  18  8
17  18  8
19  21  8
2  4  8
2  8  8
20  21  8
4  6  8
5  6  8
5  8  8
7  11  8
7  12  8

> <PUBCHEM_BOND_DEF_STEREO_COUNT>
0

> <PUBCHEM_BOND_UDEF_STEREO_COUNT>
0

> <PUBCHEM_CACTVS_COMPLEXITY>
370

> <PUBCHEM_CACTVS_HBOND_ACCEPTOR>
3

> <PUBCHEM_CACTVS_HBOND_DONOR>
0

> <PUBCHEM_CACTVS_ROTATABLE_BOND>
3

> <PUBCHEM_CACTVS_SUBSKEYS>
AAADccB6MAAEAAAAAAAAAAAAAAAAAWAAAAAwYAAAAAAAAAAB0AAAHgIEAAAADA6BniAyhJAQAACpA6RyQgCCAAAkJQAomCEkTtoIJr6Jl5OAMcBmoBgIyceYyOCOAAAAAAABAAAAAAAAAAIAAAAAAAAAAA==

> <PUBCHEM_CACTVS_TAUTO_COUNT>
1

> <PUBCHEM_CACTVS_TPSA>
43.1

> <PUBCHEM_COMPONENT_COUNT>
1

> <PUBCHEM_COMPOUND_CANONICALIZED>
1

> <PUBCHEM_COMPOUND_CID>
2805173

> <PUBCHEM_COORDINATE_TYPE>
1
5
255

> <PUBCHEM_EXACT_MASS>
297.055656

> <PUBCHEM_HEAVY_ATOM_COUNT>
21

> <PUBCHEM_ISOTOPIC_ATOM_COUNT>
0

> <PUBCHEM_IUPAC_CAS_NAME>
[3-(2-chlorophenyl)-5-methyl-4-isoxazolyl]-phenylmethanone

> <PUBCHEM_IUPAC_INCHI>
InChI=1S/C17H12ClNO2/c1-11-15(17(20)12-7-3-2-4-8-12)16(19-21-11)13-9-5-6-10-14(13)18/h2-10H,1H3

> <PUBCHEM_IUPAC_INCHIKEY>
VFCULKCUMBHRKF-UHFFFAOYSA-N

> <PUBCHEM_IUPAC_NAME>
[3-(2-chlorophenyl)-5-methyl-1,2-oxazol-4-yl]-phenylmethanone

> <PUBCHEM_IUPAC_OPENEYE_NAME>
[3-(2-chlorophenyl)-5-methyl-isoxazol-4-yl]-phenyl-methanone

> <PUBCHEM_IUPAC_SYSTEMATIC_NAME>
[3-(2-chlorophenyl)-5-methyl-1,2-oxazol-4-yl]-phenyl-methanone

> <PUBCHEM_IUPAC_TRADITIONAL_NAME>
[3-(2-chlorophenyl)-5-methyl-isoxazol-4-yl]-phenyl-methanone

> <PUBCHEM_MOLECULAR_FORMULA>
C17H12ClNO2

> <PUBCHEM_MOLECULAR_WEIGHT>
297.73568

> <PUBCHEM_MONOISOTOPIC_WEIGHT>
297.055656

> <PUBCHEM_OPENEYE_CAN_SMILES>
CC1=C(C(=NO1)C2=CC=CC=C2Cl)C(=O)C3=CC=CC=C3

> <PUBCHEM_OPENEYE_ISO_SMILES>
CC1=C(C(=NO1)C2=CC=CC=C2Cl)C(=O)C3=CC=CC=C3

> <PUBCHEM_TOTAL_CHARGE>
0

> <PUBCHEM_XLOGP3_AA>
4.4

$$$$
Largest isolated from Written by BCL::WriteToMDL,2337473
JMcorina  04211410293D 1   1.00000     0.00000 
CORINA 3.49 0026  01.06.2011
 36 38  0  0  0  0  0  0  0  0999 V2000
   -0.0172    1.4168    0.0098 S   0  0  0  1  0  0  0  0  0  0  0  0
    0.0021   -0.0041    0.0020 O   0  0  0  1  0  0  0  0  0  0  0  0
    1.1617    2.2101    0.0028 O   0  0  0  1  0  0  0  0  0  0  0  0
   -2.8580    0.5476   -1.1766 O   0  0  0  1  0  0  0  0  0  0  0  0
   -2.6007    2.0336   -2.8992 N   0  0  0  1  0  0  0  0  0  0  0  0
   -1.5841    2.9348   -3.2424 N   0  0  0  1  0  0  0  0  0  0  0  0
   -0.9567    1.9094   -1.3970 C   0  0  0  1  0  0  0  0  0  0  0  0
   -0.5936    2.8363   -2.3066 C   0  0  0  1  0  0  0  0  0  0  0  0
   -2.2233    1.4015   -1.7691 C   0  0  0  1  0  0  0  0  0  0  0  0
   -0.9297    1.8941    1.4396 C   0  0  0  1  0  0  0  0  0  0  0  0
   -3.7944    1.8306   -3.5989 C   0  0  0  1  0  0  0  0  0  0  0  0
    0.6878    3.6292   -2.2932 C   0  0  0  1  0  0  0  0  0  0  0  0
   -1.8430    1.0209    2.0000 C   0  0  0  1  0  0  0  0  0  0  0  0
   -0.7281    3.1397    2.0041 C   0  0  0  1  0  0  0  0  0  0  0  0
   -4.0579    2.5592   -4.7517 C   0  0  0  1  0  0  0  0  0  0  0  0
   -4.7164    0.8960   -3.1458 C   0  0  0  1  0  0  0  0  0  0  0  0
   -2.5589    1.3954    3.1217 C   0  0  0  1  0  0  0  0  0  0  0  0
   -1.4439    3.5143    3.1258 C   0  0  0  1  0  0  0  0  0  0  0  0
   -5.2374    2.3560   -5.4406 C   0  0  0  1  0  0  0  0  0  0  0  0
   -5.8941    0.6976   -3.8395 C   0  0  0  1  0  0  0  0  0  0  0  0
   -2.3611    2.6430    3.6832 C   0  0  0  1  0  0  0  0  0  0  0  0
   -6.1557    1.4283   -4.9839 C   0  0  0  1  0  0  0  0  0  0  0  0
   -1.5835    3.5259   -4.0114 H   0  0  0  1  0  0  0  0  0  0  0  0
    0.7079    4.3017   -3.1507 H   0  0  0  1  0  0  0  0  0  0  0  0
    0.7452    4.2114   -1.3735 H   0  0  0  1  0  0  0  0  0  0  0  0
    1.5371    2.9481   -2.3456 H   0  0  0  1  0  0  0  0  0  0  0  0
   -1.9975    0.0462    1.5614 H   0  0  0  1  0  0  0  0  0  0  0  0
   -0.0110    3.8202    1.5691 H   0  0  0  1  0  0  0  0  0  0  0  0
   -3.3413    3.2841   -5.1087 H   0  0  0  1  0  0  0  0  0  0  0  0
   -4.5125    0.3247   -2.2523 H   0  0  0  1  0  0  0  0  0  0  0  0
   -3.2730    0.7134    3.5591 H   0  0  0  1  0  0  0  0  0  0  0  0
   -1.2861    4.4873    3.5671 H   0  0  0  1  0  0  0  0  0  0  0  0
   -5.4431    2.9224   -6.3369 H   0  0  0  1  0  0  0  0  0  0  0  0
   -6.6113   -0.0293   -3.4879 H   0  0  0  1  0  0  0  0  0  0  0  0
   -2.9207    2.9358    4.5593 H   0  0  0  1  0  0  0  0  0  0  0  0
   -7.0775    1.2716   -5.5244 H   0  0  0  1  0  0  0  0  0  0  0  0
  1  2  2  0  0  0  0
  1  3  2  0  0  0  0
  1  7  1  0  0  0  0
  1 10  1  0  0  0  0
  4  9  2  0  0  0  0
  5  6  1  0  0  0  0
  5  9  1  0  0  0  0
  5 11  1  0  0  0  0
  6  8  1  0  0  0  0
  6 23  1  0  0  0  0
  7  8  2  0  0  0  0
  7  9  1  0  0  0  0
  8 12  1  0  0  0  0
 10 13  4  0  0  0  0
 10 14  4  0  0  0  0
 11 15  4  0  0  0  0
 11 16  4  0  0  0  0
 12 24  1  0  0  0  0
 12 25  1  0  0  0  0
 12 26  1  0  0  0  0
 13 17  4  0  0  0  0
 13 27  1  0  0  0  0
 14 18  4  0  0  0  0
 14 28  1  0  0  0  0
 15 19  4  0  0  0  0
 15 29  1  0  0  0  0
 16 20  4  0  0  0  0
 16 30  1  0  0  0  0
 17 21  4  0  0  0  0
 17 31  1  0  0  0  0
 18 21  4  0  0  0  0
 18 32  1  0  0  0  0
 19 22  4  0  0  0  0
 19 33  1  0  0  0  0
 20 22  4  0  0  0  0
 20 34  1  0  0  0  0
 21 35  1  0  0  0  0
 22 36  1  0  0  0  0
M  END
> <Activity>
0.01

> <Mapped(file=2032.csv.activities,property=Cached(PUBCHEM_COMPOUND_CID))>
100

> <MatchIndices>
20 

> <PUBCHEM_ATOM_DEF_STEREO_COUNT>
0

> <PUBCHEM_ATOM_UDEF_STEREO_COUNT>
0

> <PUBCHEM_BONDANNOTATIONS>
10  13  8
10  14  8
11  15  8
11  16  8
13  17  8
14  18  8
15  19  8
16  20  8
17  21  8
18  21  8
19  22  8
20  22  8
5  6  8
5  9  8
6  8  8
7  8  8
7  9  8

> <PUBCHEM_BOND_DEF_STEREO_COUNT>
0

> <PUBCHEM_BOND_UDEF_STEREO_COUNT>
0

> <PUBCHEM_CACTVS_COMPLEXITY>
565

> <PUBCHEM_CACTVS_HBOND_ACCEPTOR>
4

> <PUBCHEM_CACTVS_HBOND_DONOR>
1

> <PUBCHEM_CACTVS_ROTATABLE_BOND>
3

> <PUBCHEM_CACTVS_SUBSKEYS>
AAADccB7MABAAAAAAAAAAAAAAAAAAQAAAAAwYAAAAAAAAAABQAAAHgQYAAAACAiB0AAywYJiAAqIACVSUHDCBAAhChAaqBgAZMgIICLgkZGEIAhglADoyUcQAAAAAAAAAAAAAAAAAAAAAAAAAAAAAAAAAA==

> <PUBCHEM_CACTVS_TAUTO_COUNT>
3

> <PUBCHEM_CACTVS_TPSA>
74.9

> <PUBCHEM_COMPONENT_COUNT>
1

> <PUBCHEM_COMPOUND_CANONICALIZED>
1

> <PUBCHEM_COMPOUND_CID>
2337473

> <PUBCHEM_COORDINATE_TYPE>
1
5
255

> <PUBCHEM_EXACT_MASS>
314.072513

> <PUBCHEM_HEAVY_ATOM_COUNT>
22

> <PUBCHEM_ISOTOPIC_ATOM_COUNT>
0

> <PUBCHEM_IUPAC_CAS_NAME>
4-(benzenesulfonyl)-5-methyl-2-phenyl-1H-pyrazol-3-one

> <PUBCHEM_IUPAC_INCHI>
InChI=1S/C16H14N2O3S/c1-12-15(22(20,21)14-10-6-3-7-11-14)16(19)18(17-12)13-8-4-2-5-9-13/h2-11,17H,1H3

> <PUBCHEM_IUPAC_INCHIKEY>
JSQKXEMSJFOMJM-UHFFFAOYSA-N

> <PUBCHEM_IUPAC_NAME>
4-(benzenesulfonyl)-5-methyl-2-phenyl-1H-pyrazol-3-one

> <PUBCHEM_IUPAC_OPENEYE_NAME>
4-(benzenesulfonyl)-5-methyl-2-phenyl-1H-pyrazol-3-one

> <PUBCHEM_IUPAC_SYSTEMATIC_NAME>
5-methyl-2-phenyl-4-(phenylsulfonyl)-1H-pyrazol-3-one

> <PUBCHEM_IUPAC_TRADITIONAL_NAME>
4-besyl-5-methyl-2-phenyl-3-pyrazolin-3-one

> <PUBCHEM_MOLECULAR_FORMULA>
C16H14N2O3S

> <PUBCHEM_MOLECULAR_WEIGHT>
314.35896

> <PUBCHEM_MONOISOTOPIC_WEIGHT>
314.072513

> <PUBCHEM_OPENEYE_CAN_SMILES>
CC1=C(C(=O)N(N1)C2=CC=CC=C2)S(=O)(=O)C3=CC=CC=C3

> <PUBCHEM_OPENEYE_ISO_SMILES>
CC1=C(C(=O)N(N1)C2=CC=CC=C2)S(=O)(=O)C3=CC=CC=C3

> <PUBCHEM_TOTAL_CHARGE>
0

> <PUBCHEM_XLOGP3_AA>
2.9

$$$$
Largest isolated from Written by BCL::WriteToMDL,2998207
JMcorina  04211410293D 1   1.00000     0.00000 
CORINA 3.49 0026  01.06.2011
 32 34  0  0  0  0  0  0  0  0999 V2000
   -3.2602    3.1134    5.0922 Cl  0  0  0  1  0  0  0  0  0  0  0  0
   -0.0172    1.4168    0.0098 S   0  0  0  1  0  0  0  0  0  0  0  0
   -1.8449    3.1543   -3.4126 S   0  0  0  1  0  0  0  0  0  0  0  0
    1.5631    2.4496   -2.6829 O   0  0  0  1  0  0  0  0  0  0  0  0
    0.0021   -0.0041    0.0020 O   0  0  0  1  0  0  0  0  0  0  0  0
    1.1617    2.2101    0.0028 O   0  0  0  1  0  0  0  0  0  0  0  0
   -0.9002    1.8797   -1.3124 N   0  0  0  1  0  0  0  0  0  0  0  0
   -0.7461    3.1994   -1.9428 C   0  0  0  1  0  0  0  0  0  0  0  0
   -1.8911    1.0076   -1.9394 C   0  0  0  1  0  0  0  0  0  0  0  0
   -1.9662    1.3164   -3.4605 C   0  0  0  1  0  0  0  0  0  0  0  0
    0.6846    3.4144   -2.3648 C   0  0  0  1  0  0  0  0  0  0  0  0
   -0.9297    1.8941    1.4396 C   0  0  0  1  0  0  0  0  0  0  0  0
    1.2984    4.6051   -2.4863 C   0  0  0  1  0  0  0  0  0  0  0  0
   -1.8430    1.0206    1.9998 C   0  0  0  1  0  0  0  0  0  0  0  0
   -0.7278    3.1398    2.0040 C   0  0  0  1  0  0  0  0  0  0  0  0
    2.6240    4.3421   -2.9018 C   0  0  0  1  0  0  0  0  0  0  0  0
    2.7409    3.0064   -3.0094 C   0  0  0  1  0  0  0  0  0  0  0  0
   -2.5590    1.3945    3.1213 C   0  0  0  1  0  0  0  0  0  0  0  0
   -1.4426    3.5145    3.1260 C   0  0  0  1  0  0  0  0  0  0  0  0
   -2.3612    2.6431    3.6836 C   0  0  0  1  0  0  0  0  0  0  0  0
   -1.0621    3.9859   -1.2575 H   0  0  0  1  0  0  0  0  0  0  0  0
   -1.6027   -0.0334   -1.7938 H   0  0  0  1  0  0  0  0  0  0  0  0
   -2.8666    1.1805   -1.4849 H   0  0  0  1  0  0  0  0  0  0  0  0
   -2.9166    0.9925   -3.8847 H   0  0  0  1  0  0  0  0  0  0  0  0
   -1.1250    0.8771   -3.9966 H   0  0  0  1  0  0  0  0  0  0  0  0
    0.8622    5.5758   -2.3024 H   0  0  0  1  0  0  0  0  0  0  0  0
   -1.9973    0.0460    1.5609 H   0  0  0  1  0  0  0  0  0  0  0  0
   -0.0111    3.8203    1.5683 H   0  0  0  1  0  0  0  0  0  0  0  0
    3.3947    5.0733   -3.0960 H   0  0  0  1  0  0  0  0  0  0  0  0
    3.6309    2.4722   -3.3077 H   0  0  0  1  0  0  0  0  0  0  0  0
   -3.2730    0.7123    3.5585 H   0  0  0  1  0  0  0  0  0  0  0  0
   -1.2848    4.4877    3.5669 H   0  0  0  1  0  0  0  0  0  0  0  0
  1 20  1  0  0  0  0
  2  5  2  0  0  0  0
  2  6  2  0  0  0  0
  2  7  1  0  0  0  0
  2 12  1  0  0  0  0
  3  8  1  0  0  0  0
  3 10  1  0  0  0  0
  4 11  4  0  0  0  0
  4 17  4  0  0  0  0
  7  8  1  0  0  0  0
  7  9  1  0  0  0  0
  8 11  1  0  0  0  0
  8 21  1  0  0  0  0
  9 10  1  0  0  0  0
  9 22  1  0  0  0  0
  9 23  1  0  0  0  0
 10 24  1  0  0  0  0
 10 25  1  0  0  0  0
 11 13  4  0  0  0  0
 12 14  4  0  0  0  0
 12 15  4  0  0  0  0
 13 16  4  0  0  0  0
 13 26  1  0  0  0  0
 14 18  4  0  0  0  0
 14 27  1  0  0  0  0
 15 19  4  0  0  0  0
 15 28  1  0  0  0  0
 16 17  4  0  0  0  0
 16 29  1  0  0  0  0
 17 30  1  0  0  0  0
 18 20  4  0  0  0  0
 18 31  1  0  0  0  0
 19 20  4  0  0  0  0
 19 32  1  0  0  0  0
M  END
> <Activity>
0.01

> <Mapped(file=2032.csv.activities,property=Cached(PUBCHEM_COMPOUND_CID))>
100

> <MatchIndices>
153 

> <PUBCHEM_ATOM_DEF_STEREO_COUNT>
0

> <PUBCHEM_ATOM_UDEF_STEREO_COUNT>
1

> <PUBCHEM_BONDANNOTATIONS>
11  13  8
12  14  8
12  15  8
13  16  8
14  18  8
15  19  8
16  17  8
18  20  8
19  20  8
4  11  8
4  17  8
8  11  3

> <PUBCHEM_BOND_DEF_STEREO_COUNT>
0

> <PUBCHEM_BOND_UDEF_STEREO_COUNT>
0

> <PUBCHEM_CACTVS_COMPLEXITY>
431

> <PUBCHEM_CACTVS_HBOND_ACCEPTOR>
5

> <PUBCHEM_CACTVS_HBOND_DONOR>
0

> <PUBCHEM_CACTVS_ROTATABLE_BOND>
3

> <PUBCHEM_CACTVS_SUBSKEYS>
AAADccByMABkAAAAAAAAAAAAAAAAAWJAAAAwAAAAAAAAAAABwAAAHgYAQAAACAbl0CawBYIABEqIAKhSgHDCCBBkJRAIiBmODsgOJjKltzuHOSjkwBG4qYeYEQIAAAIAAAAAAAAABAAAAAAAAAAAAAAAAA==

> <PUBCHEM_CACTVS_TAUTO_COUNT>
1

> <PUBCHEM_CACTVS_TPSA>
84.2

> <PUBCHEM_COMPONENT_COUNT>
1

> <PUBCHEM_COMPOUND_CANONICALIZED>
1

> <PUBCHEM_COMPOUND_CID>
2998207

> <PUBCHEM_COORDINATE_TYPE>
1
5
255

> <PUBCHEM_EXACT_MASS>
328.994713

> <PUBCHEM_HEAVY_ATOM_COUNT>
20

> <PUBCHEM_ISOTOPIC_ATOM_COUNT>
0

> <PUBCHEM_IUPAC_CAS_NAME>
3-(4-chlorophenyl)sulfonyl-2-(2-furanyl)thiazolidine

> <PUBCHEM_IUPAC_INCHI>
InChI=1S/C13H12ClNO3S2/c14-10-3-5-11(6-4-10)20(16,17)15-7-9-19-13(15)12-2-1-8-18-12/h1-6,8,13H,7,9H2

> <PUBCHEM_IUPAC_INCHIKEY>
GYBNNSZJCAPPOA-UHFFFAOYSA-N

> <PUBCHEM_IUPAC_NAME>
3-(4-chlorophenyl)sulfonyl-2-(furan-2-yl)-1,3-thiazolidine

> <PUBCHEM_IUPAC_OPENEYE_NAME>
3-(4-chlorophenyl)sulfonyl-2-(2-furyl)thiazolidine

> <PUBCHEM_IUPAC_SYSTEMATIC_NAME>
3-(4-chlorophenyl)sulfonyl-2-(furan-2-yl)-1,3-thiazolidine

> <PUBCHEM_IUPAC_TRADITIONAL_NAME>
3-(4-chlorophenyl)sulfonyl-2-(2-furyl)thiazolidine

> <PUBCHEM_MOLECULAR_FORMULA>
C13H12ClNO3S2

> <PUBCHEM_MOLECULAR_WEIGHT>
329.82228

> <PUBCHEM_MONOISOTOPIC_WEIGHT>
328.994713

> <PUBCHEM_OPENEYE_CAN_SMILES>
C1CSC(N1S(=O)(=O)C2=CC=C(C=C2)Cl)C3=CC=CO3

> <PUBCHEM_OPENEYE_ISO_SMILES>
C1CSC(N1S(=O)(=O)C2=CC=C(C=C2)Cl)C3=CC=CO3

> <PUBCHEM_TOTAL_CHARGE>
0

> <PUBCHEM_XLOGP3_AA>
2.8

$$$$
Largest isolated from Written by BCL::WriteToMDL,1442565
JMcorina  04211410293D 1   1.00000     0.00000 
CORINA 3.49 0026  01.06.2011
 42 44  0  0  0  0  0  0  0  0999 V2000
   -0.0218    1.7577    0.0117 S   0  0  0  1  0  0  0  0  0  0  0  0
    3.2345    4.0737   -0.0069 O   0  0  0  1  0  0  0  0  0  0  0  0
    1.0410    4.3412    0.0154 O   0  0  0  1  0  0  0  0  0  0  0  0
    0.0974   -2.7333   -0.0127 N   0  0  0  1  0  0  0  0  0  0  0  0
    1.1498   -0.6705   -0.0125 N   0  0  0  1  0  0  0  0  0  0  0  0
    2.5215   -2.6813   -0.0355 C   0  0  0  1  0  0  0  0  0  0  0  0
   -1.2037   -0.7487    0.0100 C   0  0  0  1  0  0  0  0  0  0  0  0
    1.1807   -1.9934   -0.0195 C   0  0  0  1  0  0  0  0  0  0  0  0
   -1.1167   -2.1622    0.0020 C   0  0  0  1  0  0  0  0  0  0  0  0
    2.9548   -2.9039   -1.4616 C   0  0  0  1  0  0  0  0  0  0  0  0
    0.0021   -0.0041    0.0020 C   0  0  0  1  0  0  0  0  0  0  0  0
   -2.4586   -0.1317    0.0249 C   0  0  0  1  0  0  0  0  0  0  0  0
   -2.2940   -2.9215    0.0092 C   0  0  0  1  0  0  0  0  0  0  0  0
    3.7001   -1.9409   -2.1158 C   0  0  0  1  0  0  0  0  0  0  0  0
    2.6119   -4.0736   -2.1136 C   0  0  0  1  0  0  0  0  0  0  0  0
   -3.5856   -0.9009    0.0315 C   0  0  0  1  0  0  0  0  0  0  0  0
   -3.5025   -2.2898    0.0237 C   0  0  0  1  0  0  0  0  0  0  0  0
    4.0976   -2.1451   -3.4239 C   0  0  0  1  0  0  0  0  0  0  0  0
    3.0094   -4.2778   -3.4217 C   0  0  0  1  0  0  0  0  0  0  0  0
    1.7562    2.0963   -0.0035 C   0  0  0  1  0  0  0  0  0  0  0  0
    3.7502   -3.3125   -4.0777 C   0  0  0  1  0  0  0  0  0  0  0  0
    1.9840    3.5860    0.0024 C   0  0  0  1  0  0  0  0  0  0  0  0
    3.3785    5.5185   -0.0006 C   0  0  0  1  0  0  0  0  0  0  0  0
    4.8644    5.8830   -0.0128 C   0  0  0  1  0  0  0  0  0  0  0  0
    3.2559   -2.0578    0.4743 H   0  0  0  1  0  0  0  0  0  0  0  0
    2.4433   -3.6414    0.4746 H   0  0  0  1  0  0  0  0  0  0  0  0
   -2.5351    0.9456    0.0314 H   0  0  0  1  0  0  0  0  0  0  0  0
   -2.2448   -4.0004    0.0029 H   0  0  0  1  0  0  0  0  0  0  0  0
    3.9716   -1.0289   -1.6050 H   0  0  0  1  0  0  0  0  0  0  0  0
    2.0336   -4.8280   -1.6009 H   0  0  0  1  0  0  0  0  0  0  0  0
   -4.5551   -0.4253    0.0430 H   0  0  0  1  0  0  0  0  0  0  0  0
   -4.4091   -2.8767    0.0292 H   0  0  0  1  0  0  0  0  0  0  0  0
    2.2177    1.6547    0.8798 H   0  0  0  1  0  0  0  0  0  0  0  0
    2.2007    1.6643   -0.9001 H   0  0  0  1  0  0  0  0  0  0  0  0
    4.6793   -1.3924   -3.9353 H   0  0  0  1  0  0  0  0  0  0  0  0
    2.7417   -5.1918   -3.9310 H   0  0  0  1  0  0  0  0  0  0  0  0
    4.0605   -3.4719   -5.0998 H   0  0  0  1  0  0  0  0  0  0  0  0
    2.8948    5.9358   -0.8837 H   0  0  0  1  0  0  0  0  0  0  0  0
    2.9118    5.9263    0.8961 H   0  0  0  1  0  0  0  0  0  0  0  0
    4.9726    6.9676   -0.0080 H   0  0  0  1  0  0  0  0  0  0  0  0
    5.3482    5.4657    0.8704 H   0  0  0  1  0  0  0  0  0  0  0  0
    5.3312    5.4753   -0.9095 H   0  0  0  1  0  0  0  0  0  0  0  0
  1 11  1  0  0  0  0
  1 20  1  0  0  0  0
  2 22  1  0  0  0  0
  2 23  1  0  0  0  0
  3 22  2  0  0  0  0
  4  8  4  0  0  0  0
  4  9  4  0  0  0  0
  5  8  4  0  0  0  0
  5 11  4  0  0  0  0
  6  8  1  0  0  0  0
  6 10  1  0  0  0  0
  6 25  1  0  0  0  0
  6 26  1  0  0  0  0
  7  9  4  0  0  0  0
  7 11  4  0  0  0  0
  7 12  4  0  0  0  0
  9 13  4  0  0  0  0
 10 14  4  0  0  0  0
 10 15  4  0  0  0  0
 12 16  4  0  0  0  0
 12 27  1  0  0  0  0
 13 17  4  0  0  0  0
 13 28  1  0  0  0  0
 14 18  4  0  0  0  0
 14 29  1  0  0  0  0
 15 19  4  0  0  0  0
 15 30  1  0  0  0  0
 16 17  4  0  0  0  0
 16 31  1  0  0  0  0
 17 32  1  0  0  0  0
 18 21  4  0  0  0  0
 18 35  1  0  0  0  0
 19 21  4  0  0  0  0
 19 36  1  0  0  0  0
 20 22  1  0  0  0  0
 20 33  1  0  0  0  0
 20 34  1  0  0  0  0
 21 37  1  0  0  0  0
 23 24  1  0  0  0  0
 23 38  1  0  0  0  0
 23 39  1  0  0  0  0
 24 40  1  0  0  0  0
 24 41  1  0  0  0  0
 24 42  1  0  0  0  0
M  END
> <Activity>
0.01

> <Mapped(file=2032.csv.activities,property=Cached(PUBCHEM_COMPOUND_CID))>
100

> <MatchIndices>
112 

> <PUBCHEM_ATOM_DEF_STEREO_COUNT>
0

> <PUBCHEM_ATOM_UDEF_STEREO_COUNT>
0

> <PUBCHEM_BONDANNOTATIONS>
10  14  8
10  15  8
12  16  8
13  17  8
14  18  8
15  19  8
16  17  8
18  21  8
19  21  8
4  8  8
4  9  8
5  11  8
5  8  8
7  11  8
7  12  8
7  9  8
9  13  8

> <PUBCHEM_BOND_DEF_STEREO_COUNT>
0

> <PUBCHEM_BOND_UDEF_STEREO_COUNT>
0

> <PUBCHEM_CACTVS_COMPLEXITY>
401

> <PUBCHEM_CACTVS_HBOND_ACCEPTOR>
3

> <PUBCHEM_CACTVS_HBOND_DONOR>
0

> <PUBCHEM_CACTVS_ROTATABLE_BOND>
7

> <PUBCHEM_CACTVS_SUBSKEYS>
AAADceB7MABAAAAAAAAAAAAAAAAAAAAAAAA8YIAAAAAAAACx9AAAHgQAAAAADAil3wKz2fYIFAioAybybACC0ClhCrAJmDAwZJiIKKLg2dGGJAxogALoyCcQgIAOAAAAAAACAAAAAAAAAAQAAAAAAAAAAA==

> <PUBCHEM_CACTVS_TAUTO_COUNT>
1

> <PUBCHEM_CACTVS_TPSA>
77.4

> <PUBCHEM_COMPONENT_COUNT>
1

> <PUBCHEM_COMPOUND_CANONICALIZED>
1

> <PUBCHEM_COMPOUND_CID>
1442565

> <PUBCHEM_COORDINATE_TYPE>
1
5
255

> <PUBCHEM_EXACT_MASS>
338.108899

> <PUBCHEM_HEAVY_ATOM_COUNT>
24

> <PUBCHEM_ISOTOPIC_ATOM_COUNT>
0

> <PUBCHEM_IUPAC_CAS_NAME>
2-[[2-(phenylmethyl)-4-quinazolinyl]thio]acetic acid ethyl ester

> <PUBCHEM_IUPAC_INCHI>
InChI=1S/C19H18N2O2S/c1-2-23-18(22)13-24-19-15-10-6-7-11-16(15)20-17(21-19)12-14-8-4-3-5-9-14/h3-11H,2,12-13H2,1H3

> <PUBCHEM_IUPAC_INCHIKEY>
YRAOHSZYMMTKQT-UHFFFAOYSA-N

> <PUBCHEM_IUPAC_NAME>
ethyl 2-(2-benzylquinazolin-4-yl)sulfanylacetate

> <PUBCHEM_IUPAC_OPENEYE_NAME>
ethyl 2-(2-benzylquinazolin-4-yl)sulfanylacetate

> <PUBCHEM_IUPAC_SYSTEMATIC_NAME>
ethyl 2-[2-(phenylmethyl)quinazolin-4-yl]sulfanylethanoate

> <PUBCHEM_IUPAC_TRADITIONAL_NAME>
2-[(2-benzylquinazolin-4-yl)thio]acetic acid ethyl ester

> <PUBCHEM_MOLECULAR_FORMULA>
C19H18N2O2S

> <PUBCHEM_MOLECULAR_WEIGHT>
338.42342

> <PUBCHEM_MONOISOTOPIC_WEIGHT>
338.108899

> <PUBCHEM_OPENEYE_CAN_SMILES>
CCOC(=O)CSC1=NC(=NC2=CC=CC=C21)CC3=CC=CC=C3

> <PUBCHEM_OPENEYE_ISO_SMILES>
CCOC(=O)CSC1=NC(=NC2=CC=CC=C21)CC3=CC=CC=C3

> <PUBCHEM_TOTAL_CHARGE>
0

> <PUBCHEM_XLOGP3_AA>
4.6

$$$$
Largest isolated from Written by BCL::WriteToMDL,2415521
JMcorina  04211410293D 1   1.00000     0.00000 
CORINA 3.49 0026  01.06.2011
 44 46  0  0  0  0  0  0  0  0999 V2000
   -0.0225    1.8057    0.0120 S   0  0  0  1  0  0  0  0  0  0  0  0
   -1.4485   -0.5181   -2.3650 O   0  0  0  1  0  0  0  0  0  0  0  0
   -3.4773   -1.3012    3.5359 O   0  0  0  1  0  0  0  0  0  0  0  0
   -0.2051    8.2904    0.0669 O   0  0  0  1  0  0  0  0  0  0  0  0
    2.2967    3.3577   -0.0018 N   0  0  0  1  0  0  0  0  0  0  0  0
    3.6789    3.1013   -0.0159 N   0  0  0  1  0  0  0  0  0  0  0  0
    2.6746    1.2423   -0.0163 N   0  0  0  1  0  0  0  0  0  0  0  0
    3.8213    1.8203   -0.0239 N   0  0  0  1  0  0  0  0  0  0  0  0
   -1.4117   -0.5257    0.0127 C   0  0  0  1  0  0  0  0  0  0  0  0
   -2.0757   -0.7600   -1.1867 C   0  0  0  1  0  0  0  0  0  0  0  0
    0.0021   -0.0041    0.0020 C   0  0  0  1  0  0  0  0  0  0  0  0
   -2.0481   -0.7650    1.2096 C   0  0  0  1  0  0  0  0  0  0  0  0
   -3.3639   -1.2443    1.2135 C   0  0  0  1  0  0  0  0  0  0  0  0
   -3.3807   -1.2409   -1.1822 C   0  0  0  1  0  0  0  0  0  0  0  0
   -4.0230   -1.4767   -0.0001 C   0  0  0  1  0  0  0  0  0  0  0  0
    1.7084    2.1353   -0.0028 C   0  0  0  1  0  0  0  0  0  0  0  0
    1.6620    4.6092    0.0156 C   0  0  0  1  0  0  0  0  0  0  0  0
   -4.0502   -1.5028    2.4859 C   0  0  0  1  0  0  0  0  0  0  0  0
   -2.1880   -0.7802   -3.5594 C   0  0  0  1  0  0  0  0  0  0  0  0
    2.2322    5.6673    0.7101 C   0  0  0  1  0  0  0  0  0  0  0  0
    0.4666    4.7910   -0.6665 C   0  0  0  1  0  0  0  0  0  0  0  0
   -5.4662   -2.0185    2.4871 C   0  0  0  1  0  0  0  0  0  0  0  0
    1.6073    6.8984    0.7270 C   0  0  0  1  0  0  0  0  0  0  0  0
   -0.1576    6.0224   -0.6490 C   0  0  0  1  0  0  0  0  0  0  0  0
   -1.3230   -0.4503   -4.7775 C   0  0  0  1  0  0  0  0  0  0  0  0
    0.4098    7.0781    0.0500 C   0  0  0  1  0  0  0  0  0  0  0  0
    0.5123   -0.3556   -0.8948 H   0  0  0  1  0  0  0  0  0  0  0  0
    0.5293   -0.3651    0.8851 H   0  0  0  1  0  0  0  0  0  0  0  0
   -1.5344   -0.5842    2.1422 H   0  0  0  1  0  0  0  0  0  0  0  0
   -3.8912   -1.4202   -2.1169 H   0  0  0  1  0  0  0  0  0  0  0  0
   -5.0378   -1.8463   -0.0013 H   0  0  0  1  0  0  0  0  0  0  0  0
   -2.4701   -1.8327   -3.5884 H   0  0  0  1  0  0  0  0  0  0  0  0
   -3.0861   -0.1628   -3.5735 H   0  0  0  1  0  0  0  0  0  0  0  0
    3.1643    5.5274    1.2375 H   0  0  0  1  0  0  0  0  0  0  0  0
    0.0251    3.9694   -1.2109 H   0  0  0  1  0  0  0  0  0  0  0  0
   -6.1593   -1.1773    2.4939 H   0  0  0  1  0  0  0  0  0  0  0  0
   -5.6343   -2.6206    1.5942 H   0  0  0  1  0  0  0  0  0  0  0  0
   -5.6291   -2.6307    3.3742 H   0  0  0  1  0  0  0  0  0  0  0  0
    2.0507    7.7216    1.2677 H   0  0  0  1  0  0  0  0  0  0  0  0
   -1.0874    6.1640   -1.1799 H   0  0  0  1  0  0  0  0  0  0  0  0
   -1.0409    0.6022   -4.7485 H   0  0  0  1  0  0  0  0  0  0  0  0
   -0.4249   -1.0677   -4.7634 H   0  0  0  1  0  0  0  0  0  0  0  0
   -1.8871   -0.6502   -5.6885 H   0  0  0  1  0  0  0  0  0  0  0  0
    0.0625    8.8772   -0.6536 H   0  0  0  1  0  0  0  0  0  0  0  0
  1 11  1  0  0  0  0
  1 16  1  0  0  0  0
  2 10  1  0  0  0  0
  2 19  1  0  0  0  0
  3 18  2  0  0  0  0
  4 26  1  0  0  0  0
  4 44  1  0  0  0  0
  5  6  4  0  0  0  0
  5 16  4  0  0  0  0
  5 17  1  0  0  0  0
  6  8  4  0  0  0  0
  7  8  4  0  0  0  0
  7 16  4  0  0  0  0
  9 10  4  0  0  0  0
  9 11  1  0  0  0  0
  9 12  4  0  0  0  0
 10 14  4  0  0  0  0
 11 27  1  0  0  0  0
 11 28  1  0  0  0  0
 12 13  4  0  0  0  0
 12 29  1  0  0  0  0
 13 15  4  0  0  0  0
 13 18  1  0  0  0  0
 14 15  4  0  0  0  0
 14 30  1  0  0  0  0
 15 31  1  0  0  0  0
 17 20  4  0  0  0  0
 17 21  4  0  0  0  0
 18 22  1  0  0  0  0
 19 25  1  0  0  0  0
 19 32  1  0  0  0  0
 19 33  1  0  0  0  0
 20 23  4  0  0  0  0
 20 34  1  0  0  0  0
 21 24  4  0  0  0  0
 21 35  1  0  0  0  0
 22 36  1  0  0  0  0
 22 37  1  0  0  0  0
 22 38  1  0  0  0  0
 23 26  4  0  0  0  0
 23 39  1  0  0  0  0
 24 26  4  0  0  0  0
 24 40  1  0  0  0  0
 25 41  1  0  0  0  0
 25 42  1  0  0  0  0
 25 43  1  0  0  0  0
M  END
> <Activity>
0.01

> <Mapped(file=2032.csv.activities,property=Cached(PUBCHEM_COMPOUND_CID))>
100

> <MatchIndices>
137 

> <PUBCHEM_ATOM_DEF_STEREO_COUNT>
0

> <PUBCHEM_ATOM_UDEF_STEREO_COUNT>
0

> <PUBCHEM_BONDANNOTATIONS>
10  14  8
12  13  8
13  15  8
14  15  8
17  20  8
17  21  8
20  23  8
21  24  8
23  26  8
24  26  8
5  16  8
5  6  8
6  8  8
7  16  8
7  8  8
9  10  8
9  12  8

> <PUBCHEM_BOND_DEF_STEREO_COUNT>
0

> <PUBCHEM_BOND_UDEF_STEREO_COUNT>
0

> <PUBCHEM_CACTVS_COMPLEXITY>
462

> <PUBCHEM_CACTVS_HBOND_ACCEPTOR>
6

> <PUBCHEM_CACTVS_HBOND_DONOR>
1

> <PUBCHEM_CACTVS_ROTATABLE_BOND>
7

> <PUBCHEM_CACTVS_SUBSKEYS>
AAADceB7sABAAAAAAAAAAAAAAAAAAWAAAAAwYAAAAAAAAAAB0AAAHgQICAAADAyl2AKz1oYIBgiqAqRSZACCHCNlIpAdiAEGbMiMJjLmvZuGeSjkwBNI+ae4zODOIEACAAAIAABAgAQAABAAAAAAAAAAAA==

> <PUBCHEM_CACTVS_TAUTO_COUNT>
4

> <PUBCHEM_CACTVS_TPSA>
115

> <PUBCHEM_COMPONENT_COUNT>
1

> <PUBCHEM_COMPOUND_CANONICALIZED>
1

> <PUBCHEM_COMPOUND_CID>
2415521

> <PUBCHEM_COORDINATE_TYPE>
1
5
255

> <PUBCHEM_EXACT_MASS>
370.109961

> <PUBCHEM_HEAVY_ATOM_COUNT>
26

> <PUBCHEM_ISOTOPIC_ATOM_COUNT>
0

> <PUBCHEM_IUPAC_CAS_NAME>
1-[4-ethoxy-3-[[[1-(4-hydroxyphenyl)-5-tetrazolyl]thio]methyl]phenyl]ethanone

> <PUBCHEM_IUPAC_INCHI>
InChI=1S/C18H18N4O3S/c1-3-25-17-9-4-13(12(2)23)10-14(17)11-26-18-19-20-21-22(18)15-5-7-16(24)8-6-15/h4-10,24H,3,11H2,1-2H3

> <PUBCHEM_IUPAC_INCHIKEY>
KXJFTDWIORYGMP-UHFFFAOYSA-N

> <PUBCHEM_IUPAC_NAME>
1-[4-ethoxy-3-[[1-(4-hydroxyphenyl)tetrazol-5-yl]sulfanylmethyl]phenyl]ethanone

> <PUBCHEM_IUPAC_OPENEYE_NAME>
1-[4-ethoxy-3-[[1-(4-hydroxyphenyl)tetrazol-5-yl]sulfanylmethyl]phenyl]ethanone

> <PUBCHEM_IUPAC_SYSTEMATIC_NAME>
1-[4-ethoxy-3-[[1-(4-hydroxyphenyl)-1,2,3,4-tetrazol-5-yl]sulfanylmethyl]phenyl]ethanone

> <PUBCHEM_IUPAC_TRADITIONAL_NAME>
1-[4-ethoxy-3-[[[1-(4-hydroxyphenyl)tetrazol-5-yl]thio]methyl]phenyl]ethanone

> <PUBCHEM_MOLECULAR_FORMULA>
C18H18N4O3S

> <PUBCHEM_MOLECULAR_WEIGHT>
370.42552

> <PUBCHEM_MONOISOTOPIC_WEIGHT>
370.109961

> <PUBCHEM_OPENEYE_CAN_SMILES>
CCOC1=C(C=C(C=C1)C(=O)C)CSC2=NN=NN2C3=CC=C(C=C3)O

> <PUBCHEM_OPENEYE_ISO_SMILES>
CCOC1=C(C=C(C=C1)C(=O)C)CSC2=NN=NN2C3=CC=C(C=C3)O

> <PUBCHEM_TOTAL_CHARGE>
0

> <PUBCHEM_XLOGP3_AA>
3.2

$$$$
Largest isolated from Written by BCL::WriteToMDL,1988912
JMcorina  04211410293D 1   1.00000     0.00000 
CORINA 3.49 0026  01.06.2011
 44 45  0  0  0  0  0  0  0  0999 V2000
   -1.2722   -0.4496   -2.6899 Cl  0  0  0  1  0  0  0  0  0  0  0  0
   -5.6355   -2.0834    0.0461 Cl  0  0  0  1  0  0  0  0  0  0  0  0
   -0.0225    1.8057    0.0120 S   0  0  0  1  0  0  0  0  0  0  0  0
    7.5198    7.0009   -2.6436 O   0  0  0  1  0  0  0  0  0  0  0  0
    2.2902    3.3495   -0.0018 O   0  0  0  1  0  0  0  0  0  0  0  0
    6.1159    5.6368   -3.6893 O   0  0  0  1  0  0  0  0  0  0  0  0
    6.0899    5.5792   -1.4697 N   0  0  0  1  0  0  0  0  0  0  0  0
    3.8074    1.8446   -0.0244 N   0  0  0  1  0  0  0  0  0  0  0  0
    2.6699    1.2436   -0.0168 N   0  0  0  1  0  0  0  0  0  0  0  0
    7.9776    7.4694   -3.9395 C   0  0  0  1  0  0  0  0  0  0  0  0
    6.8014    8.0763   -4.7070 C   0  0  0  1  0  0  0  0  0  0  0  0
    9.0615    8.5314   -3.7441 C   0  0  0  1  0  0  0  0  0  0  0  0
    8.5523    6.2941   -4.7328 C   0  0  0  1  0  0  0  0  0  0  0  0
    5.0449    4.5525   -1.4648 C   0  0  0  1  0  0  0  0  0  0  0  0
    4.6950    4.1879   -0.0207 C   0  0  0  1  0  0  0  0  0  0  0  0
    6.5594    6.0574   -2.6391 C   0  0  0  1  0  0  0  0  0  0  0  0
    3.6200    3.1317   -0.0157 C   0  0  0  1  0  0  0  0  0  0  0  0
   -1.4117   -0.5257    0.0127 C   0  0  0  1  0  0  0  0  0  0  0  0
    0.0021   -0.0041    0.0020 C   0  0  0  1  0  0  0  0  0  0  0  0
    1.7084    2.1353   -0.0028 C   0  0  0  1  0  0  0  0  0  0  0  0
   -2.0720   -0.7586   -1.1804 C   0  0  0  1  0  0  0  0  0  0  0  0
   -2.0467   -0.7767    1.2148 C   0  0  0  1  0  0  0  0  0  0  0  0
   -3.3699   -1.2375   -1.1704 C   0  0  0  1  0  0  0  0  0  0  0  0
   -3.3432   -1.2550    1.2254 C   0  0  0  1  0  0  0  0  0  0  0  0
   -4.0066   -1.4831    0.0326 C   0  0  0  1  0  0  0  0  0  0  0  0
    7.7801    5.5375   -4.8720 H   0  0  0  1  0  0  0  0  0  0  0  0
    8.8959    6.6458   -5.7056 H   0  0  0  1  0  0  0  0  0  0  0  0
    9.3902    5.8618   -4.1860 H   0  0  0  1  0  0  0  0  0  0  0  0
    9.8994    8.0991   -3.1973 H   0  0  0  1  0  0  0  0  0  0  0  0
    9.4051    8.8831   -4.7169 H   0  0  0  1  0  0  0  0  0  0  0  0
    8.6521    9.3687   -3.1789 H   0  0  0  1  0  0  0  0  0  0  0  0
    6.3920    8.9136   -4.1419 H   0  0  0  1  0  0  0  0  0  0  0  0
    7.1451    8.4280   -5.6798 H   0  0  0  1  0  0  0  0  0  0  0  0
    6.0292    7.3197   -4.8462 H   0  0  0  1  0  0  0  0  0  0  0  0
    4.1571    4.9353   -1.9683 H   0  0  0  1  0  0  0  0  0  0  0  0
    5.4045    3.6656   -1.9866 H   0  0  0  1  0  0  0  0  0  0  0  0
    5.5828    3.8051    0.4827 H   0  0  0  1  0  0  0  0  0  0  0  0
    4.3354    5.0748    0.5010 H   0  0  0  1  0  0  0  0  0  0  0  0
    6.4440    5.9149   -0.6314 H   0  0  0  1  0  0  0  0  0  0  0  0
    0.5123   -0.3556   -0.8948 H   0  0  0  1  0  0  0  0  0  0  0  0
    0.5293   -0.3651    0.8851 H   0  0  0  1  0  0  0  0  0  0  0  0
   -1.5292   -0.5992    2.1460 H   0  0  0  1  0  0  0  0  0  0  0  0
   -3.8859   -1.4192   -2.1017 H   0  0  0  1  0  0  0  0  0  0  0  0
   -3.8387   -1.4509    2.1648 H   0  0  0  1  0  0  0  0  0  0  0  0
  1 21  1  0  0  0  0
  2 25  1  0  0  0  0
  3 19  1  0  0  0  0
  3 20  1  0  0  0  0
  4 10  1  0  0  0  0
  4 16  1  0  0  0  0
  5 17  4  0  0  0  0
  5 20  4  0  0  0  0
  6 16  2  0  0  0  0
  7 14  1  0  0  0  0
  7 16  1  0  0  0  0
  7 39  1  0  0  0  0
  8  9  4  0  0  0  0
  8 17  4  0  0  0  0
  9 20  4  0  0  0  0
 10 11  1  0  0  0  0
 10 12  1  0  0  0  0
 10 13  1  0  0  0  0
 11 32  1  0  0  0  0
 11 33  1  0  0  0  0
 11 34  1  0  0  0  0
 12 29  1  0  0  0  0
 12 30  1  0  0  0  0
 12 31  1  0  0  0  0
 13 26  1  0  0  0  0
 13 27  1  0  0  0  0
 13 28  1  0  0  0  0
 14 15  1  0  0  0  0
 14 35  1  0  0  0  0
 14 36  1  0  0  0  0
 15 17  1  0  0  0  0
 15 37  1  0  0  0  0
 15 38  1  0  0  0  0
 18 19  1  0  0  0  0
 18 21  4  0  0  0  0
 18 22  4  0  0  0  0
 19 40  1  0  0  0  0
 19 41  1  0  0  0  0
 21 23  4  0  0  0  0
 22 24  4  0  0  0  0
 22 42  1  0  0  0  0
 23 25  4  0  0  0  0
 23 43  1  0  0  0  0
 24 25  4  0  0  0  0
 24 44  1  0  0  0  0
M  END
> <Activity>
0.01

> <Mapped(file=2032.csv.activities,property=Cached(PUBCHEM_COMPOUND_CID))>
100

> <MatchIndices>
62 

> <PUBCHEM_ATOM_DEF_STEREO_COUNT>
0

> <PUBCHEM_ATOM_UDEF_STEREO_COUNT>
0

> <PUBCHEM_BONDANNOTATIONS>
18  21  8
18  22  8
21  23  8
22  24  8
23  25  8
24  25  8
5  17  8
5  20  8
8  17  8
8  9  8
9  20  8

> <PUBCHEM_BOND_DEF_STEREO_COUNT>
0

> <PUBCHEM_BOND_UDEF_STEREO_COUNT>
0

> <PUBCHEM_CACTVS_COMPLEXITY>
439

> <PUBCHEM_CACTVS_HBOND_ACCEPTOR>
4

> <PUBCHEM_CACTVS_HBOND_DONOR>
1

> <PUBCHEM_CACTVS_ROTATABLE_BOND>
8

> <PUBCHEM_CACTVS_SUBSKEYS>
AAADceB7MABGAAAAAAAAAAAAAAAAAWAAAAAwAAAAAAAAAAABwAAAHgYYAAAADEbF2iSyCILABEiqAiFyGAASAABoBRAaiIE4AokIICqhUxCMIAAingAIiAcAgAAOBAAAAACBAAAIAAAAAQIAAAAAAAAAAA==

> <PUBCHEM_CACTVS_TAUTO_COUNT>
2

> <PUBCHEM_CACTVS_TPSA>
103

> <PUBCHEM_COMPONENT_COUNT>
1

> <PUBCHEM_COMPOUND_CANONICALIZED>
1

> <PUBCHEM_COMPOUND_CID>
1988912

> <PUBCHEM_COORDINATE_TYPE>
1
5
255

> <PUBCHEM_EXACT_MASS>
403.052418

> <PUBCHEM_HEAVY_ATOM_COUNT>
25

> <PUBCHEM_ISOTOPIC_ATOM_COUNT>
0

> <PUBCHEM_IUPAC_CAS_NAME>
N-[2-[5-[(2,4-dichlorophenyl)methylthio]-1,3,4-oxadiazol-2-yl]ethyl]carbamic acid tert-butyl ester

> <PUBCHEM_IUPAC_INCHI>
InChI=1S/C16H19Cl2N3O3S/c1-16(2,3)24-14(22)19-7-6-13-20-21-15(23-13)25-9-10-4-5-11(17)8-12(10)18/h4-5,8H,6-7,9H2,1-3H3,(H,19,22)

> <PUBCHEM_IUPAC_INCHIKEY>
WYZRCOGHLUWLER-UHFFFAOYSA-N

> <PUBCHEM_IUPAC_NAME>
tert-butyl N-[2-[5-[(2,4-dichlorophenyl)methylsulfanyl]-1,3,4-oxadiazol-2-yl]ethyl]carbamate

> <PUBCHEM_IUPAC_OPENEYE_NAME>
tert-butyl N-[2-[5-[(2,4-dichlorophenyl)methylsulfanyl]-1,3,4-oxadiazol-2-yl]ethyl]carbamate

> <PUBCHEM_IUPAC_SYSTEMATIC_NAME>
tert-butyl N-[2-[5-[(2,4-dichlorophenyl)methylsulfanyl]-1,3,4-oxadiazol-2-yl]ethyl]carbamate

> <PUBCHEM_IUPAC_TRADITIONAL_NAME>
N-[2-[5-[(2,4-dichlorobenzyl)thio]-1,3,4-oxadiazol-2-yl]ethyl]carbamic acid tert-butyl ester

> <PUBCHEM_MOLECULAR_FORMULA>
C16H19Cl2N3O3S

> <PUBCHEM_MOLECULAR_WEIGHT>
404.31136

> <PUBCHEM_MONOISOTOPIC_WEIGHT>
403.052418

> <PUBCHEM_OPENEYE_CAN_SMILES>
CC(C)(C)OC(=O)NCCC1=NN=C(O1)SCC2=C(C=C(C=C2)Cl)Cl

> <PUBCHEM_OPENEYE_ISO_SMILES>
CC(C)(C)OC(=O)NCCC1=NN=C(O1)SCC2=C(C=C(C=C2)Cl)Cl

> <PUBCHEM_TOTAL_CHARGE>
0

> <PUBCHEM_XLOGP3_AA>
4.3

$$$$
Largest isolated from Written by BCL::WriteToMDL,17367442
JMcorina  04211410293D 1   1.00000     0.00000 
CORINA 3.49 0026  01.06.2011
 47 49  0  0  0  0  0  0  0  0999 V2000
   -0.0164    1.3548    0.0095 O   0  0  0  1  0  0  0  0  0  0  0  0
    0.3264   -4.7710    1.3356 N   0  0  0  1  0  0  0  0  0  0  0  0
    0.0370  -10.3396    3.0532 N   0  0  0  1  0  0  0  0  0  0  0  0
    0.6331   -6.7154    2.7925 C   0  0  0  1  0  0  0  0  0  0  0  0
    0.6610   -8.2218    2.8232 C   0  0  0  1  0  0  0  0  0  0  0  0
    0.3537   -6.2395    1.3655 C   0  0  0  1  0  0  0  0  0  0  0  0
    1.8101   -9.0784    2.5203 C   0  0  0  1  0  0  0  0  0  0  0  0
    0.0600   -4.2770   -0.0220 C   0  0  0  1  0  0  0  0  0  0  0  0
    0.0396   -2.7702   -0.0132 C   0  0  0  1  0  0  0  0  0  0  0  0
    1.3611  -10.4022    2.6807 C   0  0  0  1  0  0  0  0  0  0  0  0
   -0.3625   -9.0333    3.1330 C   0  0  0  1  0  0  0  0  0  0  0  0
    1.2279   -2.0639   -0.0260 C   0  0  0  1  0  0  0  0  0  0  0  0
   -1.1679   -2.0963    0.0020 C   0  0  0  1  0  0  0  0  0  0  0  0
    3.1308   -8.8320    2.1413 C   0  0  0  1  0  0  0  0  0  0  0  0
   -1.1893   -0.7153    0.0096 C   0  0  0  1  0  0  0  0  0  0  0  0
    2.2444  -11.4531    2.4573 C   0  0  0  1  0  0  0  0  0  0  0  0
    1.2119   -0.6823   -0.0185 C   0  0  0  1  0  0  0  0  0  0  0  0
    0.0021   -0.0041    0.0020 C   0  0  0  1  0  0  0  0  0  0  0  0
    2.5419   -2.8014   -0.0478 C   0  0  0  1  0  0  0  0  0  0  0  0
    3.9818   -9.8796    1.9270 C   0  0  0  1  0  0  0  0  0  0  0  0
    3.5436  -11.1872    2.0831 C   0  0  0  1  0  0  0  0  0  0  0  0
   -2.5055    0.0185    0.0256 C   0  0  0  1  0  0  0  0  0  0  0  0
    1.2479    2.0208    0.0010 C   0  0  0  1  0  0  0  0  0  0  0  0
   -0.1516   -6.3530    3.4566 H   0  0  0  1  0  0  0  0  0  0  0  0
    1.5966   -6.3273    3.1229 H   0  0  0  1  0  0  0  0  0  0  0  0
   -0.6099   -6.6276    1.0352 H   0  0  0  1  0  0  0  0  0  0  0  0
    1.1384   -6.6019    0.7015 H   0  0  0  1  0  0  0  0  0  0  0  0
    0.8427   -4.6259   -0.6957 H   0  0  0  1  0  0  0  0  0  0  0  0
   -0.9055   -4.6515   -0.3619 H   0  0  0  1  0  0  0  0  0  0  0  0
   -0.3493   -4.4085    1.9914 H   0  0  0  1  0  0  0  0  0  0  0  0
   -1.3544   -8.7039    3.4049 H   0  0  0  1  0  0  0  0  0  0  0  0
   -0.5293  -11.1072    3.2288 H   0  0  0  1  0  0  0  0  0  0  0  0
   -2.0949   -2.6503    0.0078 H   0  0  0  1  0  0  0  0  0  0  0  0
    3.4786   -7.8171    2.0169 H   0  0  0  1  0  0  0  0  0  0  0  0
    1.9132  -12.4740    2.5771 H   0  0  0  1  0  0  0  0  0  0  0  0
    2.1405   -0.1310   -0.0282 H   0  0  0  1  0  0  0  0  0  0  0  0
    2.8445   -2.9741   -1.0806 H   0  0  0  1  0  0  0  0  0  0  0  0
    3.3014   -2.2057    0.4586 H   0  0  0  1  0  0  0  0  0  0  0  0
    2.4302   -3.7579    0.4628 H   0  0  0  1  0  0  0  0  0  0  0  0
    5.0035   -9.6885    1.6338 H   0  0  0  1  0  0  0  0  0  0  0  0
    4.2281  -12.0046    1.9104 H   0  0  0  1  0  0  0  0  0  0  0  0
   -2.8134    0.1899    1.0570 H   0  0  0  1  0  0  0  0  0  0  0  0
   -2.3942    0.9755   -0.4842 H   0  0  0  1  0  0  0  0  0  0  0  0
   -3.2609   -0.5792   -0.4846 H   0  0  0  1  0  0  0  0  0  0  0  0
    1.8173    1.7308    0.8840 H   0  0  0  1  0  0  0  0  0  0  0  0
    1.8003    1.7403   -0.8958 H   0  0  0  1  0  0  0  0  0  0  0  0
    1.0905    3.0994    0.0083 H   0  0  0  1  0  0  0  0  0  0  0  0
  1 18  1  0  0  0  0
  1 23  1  0  0  0  0
  2  6  1  0  0  0  0
  2  8  1  0  0  0  0
  2 30  1  0  0  0  0
  3 10  4  0  0  0  0
  3 11  4  0  0  0  0
  3 32  1  0  0  0  0
  4  5  1  0  0  0  0
  4  6  1  0  0  0  0
  4 24  1  0  0  0  0
  4 25  1  0  0  0  0
  5  7  4  0  0  0  0
  5 11  4  0  0  0  0
  6 26  1  0  0  0  0
  6 27  1  0  0  0  0
  7 10  4  0  0  0  0
  7 14  4  0  0  0  0
  8  9  1  0  0  0  0
  8 28  1  0  0  0  0
  8 29  1  0  0  0  0
  9 12  4  0  0  0  0
  9 13  4  0  0  0  0
 10 16  4  0  0  0  0
 11 31  1  0  0  0  0
 12 17  4  0  0  0  0
 12 19  1  0  0  0  0
 13 15  4  0  0  0  0
 13 33  1  0  0  0  0
 14 20  4  0  0  0  0
 14 34  1  0  0  0  0
 15 18  4  0  0  0  0
 15 22  1  0  0  0  0
 16 21  4  0  0  0  0
 16 35  1  0  0  0  0
 17 18  4  0  0  0  0
 17 36  1  0  0  0  0
 19 37  1  0  0  0  0
 19 38  1  0  0  0  0
 19 39  1  0  0  0  0
 20 21  4  0  0  0  0
 20 40  1  0  0  0  0
 21 41  1  0  0  0  0
 22 42  1  0  0  0  0
 22 43  1  0  0  0  0
 22 44  1  0  0  0  0
 23 45  1  0  0  0  0
 23 46  1  0  0  0  0
 23 47  1  0  0  0  0
M  END
> <Activity>
0.01

> <Mapped(file=2032.csv.activities,property=Cached(PUBCHEM_COMPOUND_CID))>
100

> <MatchIndices>
189 

> <PUBCHEM_ATOM_DEF_STEREO_COUNT>
0

> <PUBCHEM_ATOM_UDEF_STEREO_COUNT>
0

> <PUBCHEM_BONDANNOTATIONS>
11  14  8
11  18  8
13  16  8
13  17  8
14  20  8
16  21  8
17  19  8
18  24  8
19  22  8
20  25  8
21  22  8
24  25  8
7  14  8
7  15  8
9  11  8
9  15  8

> <PUBCHEM_BOND_DEF_STEREO_COUNT>
0

> <PUBCHEM_BOND_UDEF_STEREO_COUNT>
0

> <PUBCHEM_CACTVS_COMPLEXITY>
433

> <PUBCHEM_CACTVS_HBOND_ACCEPTOR>
6

> <PUBCHEM_CACTVS_HBOND_DONOR>
4

> <PUBCHEM_CACTVS_ROTATABLE_BOND>
7

> <PUBCHEM_CACTVS_SUBSKEYS>
AAADceB7OAAAAAAAAAAAAAAAAAAAAWAAAAAwYAAAAAAAAFgB9AAAHgAQCAAADAzBngY+zvLJlgCoAzT3TAKCiCAxIiAI2aB+bJgNJuLEsZuEMChk0BHJ6AeQ0PIO4AADAAAaAADAAAYAADQAAAAAAAAAAA==

> <PUBCHEM_CACTVS_TAUTO_COUNT>
1

> <PUBCHEM_CACTVS_TPSA>
112

> <PUBCHEM_COMPONENT_COUNT>
2

> <PUBCHEM_COMPOUND_CANONICALIZED>
1

> <PUBCHEM_COMPOUND_CID>
17367442

> <PUBCHEM_COORDINATE_TYPE>
1
5
255

> <PUBCHEM_EXACT_MASS>
398.184172

> <PUBCHEM_HEAVY_ATOM_COUNT>
29

> <PUBCHEM_ISOTOPIC_ATOM_COUNT>
0

> <PUBCHEM_IUPAC_CAS_NAME>
2-(1H-indol-3-yl)-N-[(4-methoxy-2,5-dimethylphenyl)methyl]ethanamine; oxalic acid

> <PUBCHEM_IUPAC_INCHI>
InChI=1S/C20H24N2O.C2H2O4/c1-14-11-20(23-3)15(2)10-17(14)12-21-9-8-16-13-22-19-7-5-4-6-18(16)19;3-1(4)2(5)6/h4-7,10-11,13,21-22H,8-9,12H2,1-3H3;(H,3,4)(H,5,6)

> <PUBCHEM_IUPAC_INCHIKEY>
HALYDUNWFXRVEL-UHFFFAOYSA-N

> <PUBCHEM_IUPAC_NAME>
2-(1H-indol-3-yl)-N-[(4-methoxy-2,5-dimethylphenyl)methyl]ethanamine; oxalic acid

> <PUBCHEM_IUPAC_OPENEYE_NAME>
2-(1H-indol-3-yl)-N-[(4-methoxy-2,5-dimethyl-phenyl)methyl]ethanamine; oxalic acid

> <PUBCHEM_IUPAC_SYSTEMATIC_NAME>
ethanedioic acid; 2-(1H-indol-3-yl)-N-[(4-methoxy-2,5-dimethyl-phenyl)methyl]ethanamine

> <PUBCHEM_IUPAC_TRADITIONAL_NAME>
2-(1H-indol-3-yl)ethyl-(4-methoxy-2,5-dimethyl-benzyl)amine; oxalic acid

> <PUBCHEM_MOLECULAR_FORMULA>
C22H26N2O5

> <PUBCHEM_MOLECULAR_WEIGHT>
398.45224

> <PUBCHEM_MONOISOTOPIC_WEIGHT>
398.184172

> <PUBCHEM_OPENEYE_CAN_SMILES>
CC1=CC(=C(C=C1CNCCC2=CNC3=CC=CC=C32)C)OC.C(=O)(C(=O)O)O

> <PUBCHEM_OPENEYE_ISO_SMILES>
CC1=CC(=C(C=C1CNCCC2=CNC3=CC=CC=C32)C)OC.C(=O)(C(=O)O)O

> <PUBCHEM_TOTAL_CHARGE>
0

$$$$
Largest isolated from Written by BCL::WriteToMDL,2813491
JMcorina  04211410293D 1   1.00000     0.00000 
CORINA 3.49 0026  01.06.2011
 40 42  0  0  0  0  0  0  0  0999 V2000
   -3.3348    0.3786    4.0346 Cl  0  0  0  1  0  0  0  0  0  0  0  0
    0.0742    1.4294   -0.0515 S   0  0  0  1  0  0  0  0  0  0  0  0
   -2.6090    3.1011    4.9055 F   0  0  0  1  0  0  0  0  0  0  0  0
   -5.9494    1.6548   -3.0581 O   0  0  0  1  0  0  0  0  0  0  0  0
    0.0869    0.0084   -0.0418 O   0  0  0  1  0  0  0  0  0  0  0  0
    1.2528    2.2165   -0.1542 O   0  0  0  1  0  0  0  0  0  0  0  0
   -3.4320    2.6090   -2.2584 N   0  0  0  1  0  0  0  0  0  0  0  0
   -0.9002    1.8797   -1.3124 N   0  0  0  1  0  0  0  0  0  0  0  0
   -3.8394    2.6582   -3.6701 C   0  0  0  1  0  0  0  0  0  0  0  0
   -4.5994    2.7393   -1.3744 C   0  0  0  1  0  0  0  0  0  0  0  0
   -2.4771    3.5937   -1.9770 C   0  0  0  1  0  0  0  0  0  0  0  0
   -4.8364    1.5300   -3.9475 C   0  0  0  1  0  0  0  0  0  0  0  0
   -5.5889    1.6103   -1.6749 C   0  0  0  1  0  0  0  0  0  0  0  0
   -1.2152    3.2302   -1.5060 C   0  0  0  1  0  0  0  0  0  0  0  0
   -2.7810    4.9322   -2.1711 C   0  0  0  1  0  0  0  0  0  0  0  0
   -0.2743    4.2100   -1.2299 C   0  0  0  1  0  0  0  0  0  0  0  0
   -1.8361    5.9032   -1.8930 C   0  0  0  1  0  0  0  0  0  0  0  0
   -0.5877    5.5434   -1.4214 C   0  0  0  1  0  0  0  0  0  0  0  0
   -0.7304    1.9298    1.4341 C   0  0  0  1  0  0  0  0  0  0  0  0
   -1.6042    1.0682    2.0700 C   0  0  0  1  0  0  0  0  0  0  0  0
   -0.4827    3.1819    1.9656 C   0  0  0  1  0  0  0  0  0  0  0  0
   -2.2363    1.4601    3.2362 C   0  0  0  1  0  0  0  0  0  0  0  0
   -1.1122    3.5758    3.1311 C   0  0  0  1  0  0  0  0  0  0  0  0
   -1.9925    2.7167    3.7665 C   0  0  0  1  0  0  0  0  0  0  0  0
   -4.3093    3.6190   -3.8800 H   0  0  0  1  0  0  0  0  0  0  0  0
   -2.9631    2.5341   -4.3063 H   0  0  0  1  0  0  0  0  0  0  0  0
   -4.2779    2.6745   -0.3349 H   0  0  0  1  0  0  0  0  0  0  0  0
   -5.0815    3.7015   -1.5477 H   0  0  0  1  0  0  0  0  0  0  0  0
   -4.3502    0.5674   -3.7892 H   0  0  0  1  0  0  0  0  0  0  0  0
   -5.1848    1.5974   -4.9782 H   0  0  0  1  0  0  0  0  0  0  0  0
   -6.4814    1.7358   -1.0619 H   0  0  0  1  0  0  0  0  0  0  0  0
   -5.1245    0.6501   -1.4505 H   0  0  0  1  0  0  0  0  0  0  0  0
   -3.7554    5.2167   -2.5399 H   0  0  0  1  0  0  0  0  0  0  0  0
   -1.2528    1.2080   -1.9168 H   0  0  0  1  0  0  0  0  0  0  0  0
    0.7034    3.9321   -0.8648 H   0  0  0  1  0  0  0  0  0  0  0  0
   -2.0744    6.9455   -2.0451 H   0  0  0  1  0  0  0  0  0  0  0  0
    0.1464    6.3055   -1.2055 H   0  0  0  1  0  0  0  0  0  0  0  0
   -1.7937    0.0888    1.6560 H   0  0  0  1  0  0  0  0  0  0  0  0
    0.2035    3.8525    1.4698 H   0  0  0  1  0  0  0  0  0  0  0  0
   -0.9176    4.5537    3.5461 H   0  0  0  1  0  0  0  0  0  0  0  0
  1 22  1  0  0  0  0
  2  5  2  0  0  0  0
  2  6  2  0  0  0  0
  2  8  1  0  0  0  0
  2 19  1  0  0  0  0
  3 24  1  0  0  0  0
  4 12  1  0  0  0  0
  4 13  1  0  0  0  0
  7  9  1  0  0  0  0
  7 10  1  0  0  0  0
  7 11  1  0  0  0  0
  8 14  1  0  0  0  0
  8 34  1  0  0  0  0
  9 12  1  0  0  0  0
  9 25  1  0  0  0  0
  9 26  1  0  0  0  0
 10 13  1  0  0  0  0
 10 27  1  0  0  0  0
 10 28  1  0  0  0  0
 11 14  4  0  0  0  0
 11 15  4  0  0  0  0
 12 29  1  0  0  0  0
 12 30  1  0  0  0  0
 13 31  1  0  0  0  0
 13 32  1  0  0  0  0
 14 16  4  0  0  0  0
 15 17  4  0  0  0  0
 15 33  1  0  0  0  0
 16 18  4  0  0  0  0
 16 35  1  0  0  0  0
 17 18  4  0  0  0  0
 17 36  1  0  0  0  0
 18 37  1  0  0  0  0
 19 20  4  0  0  0  0
 19 21  4  0  0  0  0
 20 22  4  0  0  0  0
 20 38  1  0  0  0  0
 21 23  4  0  0  0  0
 21 39  1  0  0  0  0
 22 24  4  0  0  0  0
 23 24  4  0  0  0  0
 23 40  1  0  0  0  0
M  END
> <Activity>
0.01

> <Mapped(file=2032.csv.activities,property=Cached(PUBCHEM_COMPOUND_CID))>
100

> <MatchIndices>
218 

> <PUBCHEM_ATOM_DEF_STEREO_COUNT>
0

> <PUBCHEM_ATOM_UDEF_STEREO_COUNT>
0

> <PUBCHEM_BONDANNOTATIONS>
11  14  8
11  15  8
14  16  8
15  17  8
16  18  8
17  18  8
19  20  8
19  21  8
20  22  8
21  23  8
22  24  8
23  24  8

> <PUBCHEM_BOND_DEF_STEREO_COUNT>
0

> <PUBCHEM_BOND_UDEF_STEREO_COUNT>
0

> <PUBCHEM_CACTVS_COMPLEXITY>
510

> <PUBCHEM_CACTVS_HBOND_ACCEPTOR>
6

> <PUBCHEM_CACTVS_HBOND_DONOR>
1

> <PUBCHEM_CACTVS_ROTATABLE_BOND>
4

> <PUBCHEM_CACTVS_SUBSKEYS>
AAADceB7MQBEAAAAAAAAAAAAAAAAAAAAAAA8YIAAAAAAAAABQAAAHwYQQAAACArh0C4wwYNABAKAACRCQHDCABAhBwAIiBgIdogKYCLBk5GXIAhgkADYyAcQAAAAAAAAABAAACAAAAAAIAAAQAAAAAAAAA==

> <PUBCHEM_CACTVS_TAUTO_COUNT>
1

> <PUBCHEM_CACTVS_TPSA>
67

> <PUBCHEM_COMPONENT_COUNT>
1

> <PUBCHEM_COMPOUND_CANONICALIZED>
1

> <PUBCHEM_COMPOUND_CID>
2813491

> <PUBCHEM_COORDINATE_TYPE>
1
5
255

> <PUBCHEM_EXACT_MASS>
370.055419

> <PUBCHEM_HEAVY_ATOM_COUNT>
24

> <PUBCHEM_ISOTOPIC_ATOM_COUNT>
0

> <PUBCHEM_IUPAC_CAS_NAME>
3-chloro-4-fluoro-N-[2-(4-morpholinyl)phenyl]benzenesulfonamide

> <PUBCHEM_IUPAC_INCHI>
InChI=1S/C16H16ClFN2O3S/c17-13-11-12(5-6-14(13)18)24(21,22)19-15-3-1-2-4-16(15)20-7-9-23-10-8-20/h1-6,11,19H,7-10H2

> <PUBCHEM_IUPAC_INCHIKEY>
MPADTGIRWYVDPN-UHFFFAOYSA-N

> <PUBCHEM_IUPAC_NAME>
3-chloro-4-fluoro-N-(2-morpholin-4-ylphenyl)benzenesulfonamide

> <PUBCHEM_IUPAC_OPENEYE_NAME>
3-chloro-4-fluoro-N-(2-morpholinophenyl)benzenesulfonamide

> <PUBCHEM_IUPAC_SYSTEMATIC_NAME>
3-chloranyl-4-fluoranyl-N-(2-morpholin-4-ylphenyl)benzenesulfonamide

> <PUBCHEM_IUPAC_TRADITIONAL_NAME>
3-chloro-4-fluoro-N-(2-morpholinophenyl)benzenesulfonamide

> <PUBCHEM_MOLECULAR_FORMULA>
C16H16ClFN2O3S

> <PUBCHEM_MOLECULAR_WEIGHT>
370.826243

> <PUBCHEM_MONOISOTOPIC_WEIGHT>
370.055419

> <PUBCHEM_OPENEYE_CAN_SMILES>
C1COCCN1C2=CC=CC=C2NS(=O)(=O)C3=CC(=C(C=C3)F)Cl

> <PUBCHEM_OPENEYE_ISO_SMILES>
C1COCCN1C2=CC=CC=C2NS(=O)(=O)C3=CC(=C(C=C3)F)Cl

> <PUBCHEM_TOTAL_CHARGE>
0

> <PUBCHEM_XLOGP3_AA>
2.9

$$$$
Largest isolated from Written by BCL::WriteToMDL,2951933
JMcorina  04211410293D 1   1.00000     0.00000 
CORINA 3.49 0026  01.06.2011
 42 44  0  0  0  0  0  0  0  0999 V2000
   -0.0218    1.7577    0.0117 S   0  0  0  1  0  0  0  0  0  0  0  0
    3.3912    3.8760   -0.0095 O   0  0  0  1  0  0  0  0  0  0  0  0
   -1.0864   -0.8327    0.0080 N   0  0  0  1  0  0  0  0  0  0  0  0
    1.0679   -0.7706   -0.0127 N   0  0  0  1  0  0  0  0  0  0  0  0
    0.7180   -2.0071   -0.0127 N   0  0  0  1  0  0  0  0  0  0  0  0
   -2.4375   -0.4569    0.0233 C   0  0  0  1  0  0  0  0  0  0  0  0
    0.0021   -0.0041    0.0020 C   0  0  0  1  0  0  0  0  0  0  0  0
   -0.5813   -2.1059    0.0018 C   0  0  0  1  0  0  0  0  0  0  0  0
    1.7562    2.0963   -0.0035 C   0  0  0  1  0  0  0  0  0  0  0  0
    1.9874    3.6087    0.0025 C   0  0  0  1  0  0  0  0  0  0  0  0
    3.7708    5.1809   -0.0061 C   0  0  0  1  0  0  0  0  0  0  0  0
   -2.9822    0.2242   -1.0567 C   0  0  0  1  0  0  0  0  0  0  0  0
   -3.2342   -0.7705    1.1160 C   0  0  0  1  0  0  0  0  0  0  0  0
    5.1181    5.5127   -0.0172 C   0  0  0  1  0  0  0  0  0  0  0  0
   -1.3800   -3.3838    0.0108 C   0  0  0  1  0  0  0  0  0  0  0  0
    2.8121    6.1833    0.0027 C   0  0  0  1  0  0  0  0  0  0  0  0
   -4.3132    0.5930   -1.0388 C   0  0  0  1  0  0  0  0  0  0  0  0
   -4.5645   -0.3991    1.1283 C   0  0  0  1  0  0  0  0  0  0  0  0
    5.5013    6.8396   -0.0137 C   0  0  0  1  0  0  0  0  0  0  0  0
   -5.1029    0.2843    0.0535 C   0  0  0  1  0  0  0  0  0  0  0  0
    6.1622    4.4261   -0.0326 C   0  0  0  1  0  0  0  0  0  0  0  0
    3.2007    7.5092    0.0062 C   0  0  0  1  0  0  0  0  0  0  0  0
    4.5437    7.8371    0.0009 C   0  0  0  1  0  0  0  0  0  0  0  0
    2.2177    1.6547    0.8798 H   0  0  0  1  0  0  0  0  0  0  0  0
    2.2007    1.6643   -0.9001 H   0  0  0  1  0  0  0  0  0  0  0  0
    1.5430    4.0407    0.8991 H   0  0  0  1  0  0  0  0  0  0  0  0
    1.5260    4.0503   -0.8808 H   0  0  0  1  0  0  0  0  0  0  0  0
   -2.3658    0.4659   -1.9099 H   0  0  0  1  0  0  0  0  0  0  0  0
   -2.8143   -1.3046    1.9555 H   0  0  0  1  0  0  0  0  0  0  0  0
   -1.5845   -3.6917   -1.0146 H   0  0  0  1  0  0  0  0  0  0  0  0
   -0.8120   -4.1637    0.5179 H   0  0  0  1  0  0  0  0  0  0  0  0
   -2.3213   -3.2203    0.5356 H   0  0  0  1  0  0  0  0  0  0  0  0
    1.7628    5.9276    0.0065 H   0  0  0  1  0  0  0  0  0  0  0  0
   -4.7374    1.1233   -1.8785 H   0  0  0  1  0  0  0  0  0  0  0  0
   -5.1848   -0.6428    1.9781 H   0  0  0  1  0  0  0  0  0  0  0  0
    6.5498    7.0984   -0.0220 H   0  0  0  1  0  0  0  0  0  0  0  0
    6.4042    4.1694   -1.0639 H   0  0  0  1  0  0  0  0  0  0  0  0
    7.0605    4.7783    0.4746 H   0  0  0  1  0  0  0  0  0  0  0  0
    5.7772    3.5449    0.4805 H   0  0  0  1  0  0  0  0  0  0  0  0
   -6.1432    0.5740    0.0655 H   0  0  0  1  0  0  0  0  0  0  0  0
    2.4546    8.2900    0.0127 H   0  0  0  1  0  0  0  0  0  0  0  0
    4.8454    8.8741    0.0036 H   0  0  0  1  0  0  0  0  0  0  0  0
  1  7  1  0  0  0  0
  1  9  1  0  0  0  0
  2 10  1  0  0  0  0
  2 11  1  0  0  0  0
  3  6  1  0  0  0  0
  3  7  4  0  0  0  0
  3  8  4  0  0  0  0
  4  5  4  0  0  0  0
  4  7  4  0  0  0  0
  5  8  4  0  0  0  0
  6 12  4  0  0  0  0
  6 13  4  0  0  0  0
  8 15  1  0  0  0  0
  9 10  1  0  0  0  0
  9 24  1  0  0  0  0
  9 25  1  0  0  0  0
 10 26  1  0  0  0  0
 10 27  1  0  0  0  0
 11 14  4  0  0  0  0
 11 16  4  0  0  0  0
 12 17  4  0  0  0  0
 12 28  1  0  0  0  0
 13 18  4  0  0  0  0
 13 29  1  0  0  0  0
 14 19  4  0  0  0  0
 14 21  1  0  0  0  0
 15 30  1  0  0  0  0
 15 31  1  0  0  0  0
 15 32  1  0  0  0  0
 16 22  4  0  0  0  0
 16 33  1  0  0  0  0
 17 20  4  0  0  0  0
 17 34  1  0  0  0  0
 18 20  4  0  0  0  0
 18 35  1  0  0  0  0
 19 23  4  0  0  0  0
 19 36  1  0  0  0  0
 20 40  1  0  0  0  0
 21 37  1  0  0  0  0
 21 38  1  0  0  0  0
 21 39  1  0  0  0  0
 22 23  4  0  0  0  0
 22 41  1  0  0  0  0
 23 42  1  0  0  0  0
M  END
> <Activity>
0.01

> <Mapped(file=2032.csv.activities,property=Cached(PUBCHEM_COMPOUND_CID))>
100

> <MatchIndices>
50 

> <PUBCHEM_ATOM_DEF_STEREO_COUNT>
0

> <PUBCHEM_ATOM_UDEF_STEREO_COUNT>
0

> <PUBCHEM_BONDANNOTATIONS>
11  14  8
11  16  8
12  17  8
13  18  8
14  19  8
16  22  8
17  20  8
18  20  8
19  23  8
22  23  8
3  7  8
3  8  8
4  5  8
4  7  8
5  8  8
6  12  8
6  13  8

> <PUBCHEM_BOND_DEF_STEREO_COUNT>
0

> <PUBCHEM_BOND_UDEF_STEREO_COUNT>
0

> <PUBCHEM_CACTVS_COMPLEXITY>
351

> <PUBCHEM_CACTVS_HBOND_ACCEPTOR>
2

> <PUBCHEM_CACTVS_HBOND_DONOR>
0

> <PUBCHEM_CACTVS_ROTATABLE_BOND>
6

> <PUBCHEM_CACTVS_SUBSKEYS>
AAADceB7IABAAAAAAAAAAAAAAAAAAWAAAAAwYAAAAAAAAAAB0AAAHgQIAAAADAyl2wKz1ocMFAiiAiZiZACS2CthIrAdiAAWbIiMLiLEuZuGOCjkyBPI6CeQwCAOAAAAAAAIAAAAAAAAABAAAAAAAAAAAA==

> <PUBCHEM_CACTVS_TAUTO_COUNT>
1

> <PUBCHEM_CACTVS_TPSA>
65.2

> <PUBCHEM_COMPONENT_COUNT>
1

> <PUBCHEM_COMPOUND_CANONICALIZED>
1

> <PUBCHEM_COMPOUND_CID>
2951933

> <PUBCHEM_COORDINATE_TYPE>
1
5
255

> <PUBCHEM_EXACT_MASS>
325.124883

> <PUBCHEM_HEAVY_ATOM_COUNT>
23

> <PUBCHEM_ISOTOPIC_ATOM_COUNT>
0

> <PUBCHEM_IUPAC_CAS_NAME>
3-methyl-5-[2-(2-methylphenoxy)ethylthio]-4-phenyl-1,2,4-triazole

> <PUBCHEM_IUPAC_INCHI>
InChI=1S/C18H19N3OS/c1-14-8-6-7-11-17(14)22-12-13-23-18-20-19-15(2)21(18)16-9-4-3-5-10-16/h3-11H,12-13H2,1-2H3

> <PUBCHEM_IUPAC_INCHIKEY>
KROKZALZFQYMTH-UHFFFAOYSA-N

> <PUBCHEM_IUPAC_NAME>
3-methyl-5-[2-(2-methylphenoxy)ethylsulfanyl]-4-phenyl-1,2,4-triazole

> <PUBCHEM_IUPAC_OPENEYE_NAME>
3-methyl-5-[2-(2-methylphenoxy)ethylsulfanyl]-4-phenyl-1,2,4-triazole

> <PUBCHEM_IUPAC_SYSTEMATIC_NAME>
3-methyl-5-[2-(2-methylphenoxy)ethylsulfanyl]-4-phenyl-1,2,4-triazole

> <PUBCHEM_IUPAC_TRADITIONAL_NAME>
3-methyl-5-[2-(2-methylphenoxy)ethylthio]-4-phenyl-1,2,4-triazole

> <PUBCHEM_MOLECULAR_FORMULA>
C18H19N3OS

> <PUBCHEM_MOLECULAR_WEIGHT>
325.42796

> <PUBCHEM_MONOISOTOPIC_WEIGHT>
325.124883

> <PUBCHEM_OPENEYE_CAN_SMILES>
CC1=CC=CC=C1OCCSC2=NN=C(N2C3=CC=CC=C3)C

> <PUBCHEM_OPENEYE_ISO_SMILES>
CC1=CC=CC=C1OCCSC2=NN=C(N2C3=CC=CC=C3)C

> <PUBCHEM_TOTAL_CHARGE>
0

> <PUBCHEM_XLOGP3_AA>
4.4

$$$$
Largest isolated from Written by BCL::WriteToMDL,2053713
JMcorina  04211410293D 1   1.00000     0.00000 
CORINA 3.49 0026  01.06.2011
 44 44  0  0  0  0  0  0  0  0999 V2000
    1.4466    3.0350   -0.0555 O   0  0  0  1  0  0  0  0  0  0  0  0
   -0.1834    1.5437   -0.2592 N   0  0  0  1  0  0  0  0  0  0  0  0
   -0.8030   -0.3186    1.2000 C   0  0  0  1  0  0  0  0  0  0  0  0
   -0.5875    0.1356   -0.2451 C   0  0  0  1  0  0  0  0  0  0  0  0
   -1.3476   -1.7483    1.2093 C   0  0  0  1  0  0  0  0  0  0  0  0
    0.5286   -0.2750    1.9523 C   0  0  0  1  0  0  0  0  0  0  0  0
   -1.8056    0.6135    1.8834 C   0  0  0  1  0  0  0  0  0  0  0  0
   -1.5599   -2.1957    2.6327 C   0  0  0  1  0  0  0  0  0  0  0  0
   -1.1513    2.5483   -0.3681 C   0  0  0  1  0  0  0  0  0  0  0  0
    1.1202    1.8717   -0.1619 C   0  0  0  1  0  0  0  0  0  0  0  0
   -2.7336   -2.6363    3.0126 C   0  0  0  1  0  0  0  0  0  0  0  0
   -0.7648    3.8727   -0.5266 C   0  0  0  1  0  0  0  0  0  0  0  0
   -2.5005    2.2224   -0.3237 C   0  0  0  1  0  0  0  0  0  0  0  0
    2.1724    0.7930   -0.1851 C   0  0  0  1  0  0  0  0  0  0  0  0
   -3.8715   -2.6959    2.0264 C   0  0  0  1  0  0  0  0  0  0  0  0
   -2.9459   -3.0837    4.4359 C   0  0  0  1  0  0  0  0  0  0  0  0
   -1.7227    4.8619   -0.6342 C   0  0  0  1  0  0  0  0  0  0  0  0
   -3.4534    3.2162   -0.4319 C   0  0  0  1  0  0  0  0  0  0  0  0
   -3.0653    4.5347   -0.5839 C   0  0  0  1  0  0  0  0  0  0  0  0
   -1.5152    0.0182   -0.8050 H   0  0  0  1  0  0  0  0  0  0  0  0
    0.1932   -0.4710   -0.7040 H   0  0  0  1  0  0  0  0  0  0  0  0
   -2.2962   -1.7793    0.6734 H   0  0  0  1  0  0  0  0  0  0  0  0
   -0.6333   -2.4124    0.7225 H   0  0  0  1  0  0  0  0  0  0  0  0
    0.9165    0.7436    1.9456 H   0  0  0  1  0  0  0  0  0  0  0  0
    0.3750   -0.5986    2.9817 H   0  0  0  1  0  0  0  0  0  0  0  0
    1.2428   -0.9391    1.4654 H   0  0  0  1  0  0  0  0  0  0  0  0
   -2.7794    0.5140    1.4039 H   0  0  0  1  0  0  0  0  0  0  0  0
   -1.8903    0.3464    2.9368 H   0  0  0  1  0  0  0  0  0  0  0  0
   -1.4613    1.6440    1.7964 H   0  0  0  1  0  0  0  0  0  0  0  0
   -0.7444   -2.1531    3.3395 H   0  0  0  1  0  0  0  0  0  0  0  0
    0.2836    4.1290   -0.5652 H   0  0  0  1  0  0  0  0  0  0  0  0
   -2.8043    1.1928   -0.2050 H   0  0  0  1  0  0  0  0  0  0  0  0
    2.3189    0.4067    0.8235 H   0  0  0  1  0  0  0  0  0  0  0  0
    1.8492   -0.0157   -0.8406 H   0  0  0  1  0  0  0  0  0  0  0  0
    3.1100    1.2079   -0.5551 H   0  0  0  1  0  0  0  0  0  0  0  0
   -3.2719   -2.2359    5.0385 H   0  0  0  1  0  0  0  0  0  0  0  0
   -3.7080   -3.8625    4.4622 H   0  0  0  1  0  0  0  0  0  0  0  0
   -2.0113   -3.4763    4.8366 H   0  0  0  1  0  0  0  0  0  0  0  0
   -3.6003   -3.3500    1.1977 H   0  0  0  1  0  0  0  0  0  0  0  0
   -4.7610   -3.0859    2.5211 H   0  0  0  1  0  0  0  0  0  0  0  0
   -4.0762   -1.6947    1.6470 H   0  0  0  1  0  0  0  0  0  0  0  0
   -1.4228    5.8921   -0.7574 H   0  0  0  1  0  0  0  0  0  0  0  0
   -4.5029    2.9633   -0.3978 H   0  0  0  1  0  0  0  0  0  0  0  0
   -3.8124    5.3101   -0.6676 H   0  0  0  1  0  0  0  0  0  0  0  0
  1 10  2  0  0  0  0
  2  4  1  0  0  0  0
  2  9  1  0  0  0  0
  2 10  1  0  0  0  0
  3  4  1  0  0  0  0
  3  5  1  0  0  0  0
  3  6  1  0  0  0  0
  3  7  1  0  0  0  0
  4 20  1  0  0  0  0
  4 21  1  0  0  0  0
  5  8  1  0  0  0  0
  5 22  1  0  0  0  0
  5 23  1  0  0  0  0
  6 24  1  0  0  0  0
  6 25  1  0  0  0  0
  6 26  1  0  0  0  0
  7 27  1  0  0  0  0
  7 28  1  0  0  0  0
  7 29  1  0  0  0  0
  8 11  2  0  0  0  0
  8 30  1  0  0  0  0
  9 12  4  0  0  0  0
  9 13  4  0  0  0  0
 10 14  1  0  0  0  0
 11 15  1  0  0  0  0
 11 16  1  0  0  0  0
 12 17  4  0  0  0  0
 12 31  1  0  0  0  0
 13 18  4  0  0  0  0
 13 32  1  0  0  0  0
 14 33  1  0  0  0  0
 14 34  1  0  0  0  0
 14 35  1  0  0  0  0
 15 39  1  0  0  0  0
 15 40  1  0  0  0  0
 15 41  1  0  0  0  0
 16 36  1  0  0  0  0
 16 37  1  0  0  0  0
 16 38  1  0  0  0  0
 17 19  4  0  0  0  0
 17 42  1  0  0  0  0
 18 19  4  0  0  0  0
 18 43  1  0  0  0  0
 19 44  1  0  0  0  0
M  END
> <Activity>
0.01

> <Mapped(file=2032.csv.activities,property=Cached(PUBCHEM_COMPOUND_CID))>
100

> <MatchIndices>
186 

> <PUBCHEM_ATOM_DEF_STEREO_COUNT>
0

> <PUBCHEM_ATOM_UDEF_STEREO_COUNT>
0

> <PUBCHEM_BONDANNOTATIONS>
12  17  8
13  18  8
17  19  8
18  19  8
9  12  8
9  13  8

> <PUBCHEM_BOND_DEF_STEREO_COUNT>
0

> <PUBCHEM_BOND_UDEF_STEREO_COUNT>
0

> <PUBCHEM_CACTVS_COMPLEXITY>
320

> <PUBCHEM_CACTVS_HBOND_ACCEPTOR>
1

> <PUBCHEM_CACTVS_HBOND_DONOR>
0

> <PUBCHEM_CACTVS_ROTATABLE_BOND>
5

> <PUBCHEM_CACTVS_SUBSKEYS>
AAADceB6IAAAAAAAAAAAAAAAAAAAAAAAAAAwAAAAAAAAAAABAAAAHgAAAAAADgjBkAQywIMAAACIAiVSUACCAAAhAgAIiAAIZIgIICLAkZGEIAhghgDIyAcQAAAJAAAAAAAAAAAAAAAAAAAAAAAAAAAAAA==

> <PUBCHEM_CACTVS_TAUTO_COUNT>
1

> <PUBCHEM_CACTVS_TPSA>
20.3

> <PUBCHEM_COMPONENT_COUNT>
1

> <PUBCHEM_COMPOUND_CANONICALIZED>
1

> <PUBCHEM_COMPOUND_CID>
2053713

> <PUBCHEM_COORDINATE_TYPE>
1
5
255

> <PUBCHEM_EXACT_MASS>
259.193614

> <PUBCHEM_HEAVY_ATOM_COUNT>
19

> <PUBCHEM_ISOTOPIC_ATOM_COUNT>
0

> <PUBCHEM_IUPAC_CAS_NAME>
N-phenyl-N-(2,2,5-trimethylhex-4-enyl)acetamide

> <PUBCHEM_IUPAC_INCHI>
InChI=1S/C17H25NO/c1-14(2)11-12-17(4,5)13-18(15(3)19)16-9-7-6-8-10-16/h6-11H,12-13H2,1-5H3

> <PUBCHEM_IUPAC_INCHIKEY>
PZGQCQYATORQRP-UHFFFAOYSA-N

> <PUBCHEM_IUPAC_NAME>
N-phenyl-N-(2,2,5-trimethylhex-4-enyl)acetamide

> <PUBCHEM_IUPAC_OPENEYE_NAME>
N-phenyl-N-(2,2,5-trimethylhex-4-enyl)acetamide

> <PUBCHEM_IUPAC_SYSTEMATIC_NAME>
N-phenyl-N-(2,2,5-trimethylhex-4-enyl)ethanamide

> <PUBCHEM_IUPAC_TRADITIONAL_NAME>
N-phenyl-N-(2,2,5-trimethylhex-4-enyl)acetamide

> <PUBCHEM_MOLECULAR_FORMULA>
C17H25NO

> <PUBCHEM_MOLECULAR_WEIGHT>
259.3865

> <PUBCHEM_MONOISOTOPIC_WEIGHT>
259.193614

> <PUBCHEM_OPENEYE_CAN_SMILES>
CC(=CCC(C)(C)CN(C1=CC=CC=C1)C(=O)C)C

> <PUBCHEM_OPENEYE_ISO_SMILES>
CC(=CCC(C)(C)CN(C1=CC=CC=C1)C(=O)C)C

> <PUBCHEM_TOTAL_CHARGE>
0

> <PUBCHEM_XLOGP3_AA>
4.4

$$$$
Largest isolated from Written by BCL::WriteToMDL,2569114
JMcorina  04211410293D 1   1.00000     0.00000 
CORINA 3.49 0026  01.06.2011
 49 50  0  0  0  0  0  0  0  0999 V2000
   -0.0225    1.8057    0.0120 S   0  0  0  1  0  0  0  0  0  0  0  0
   -2.3446    0.2502    0.0258 O   0  0  0  1  0  0  0  0  0  0  0  0
    4.6620    0.4116   -0.0390 O   0  0  0  1  0  0  0  0  0  0  0  0
   -2.6739   -3.9310    0.0065 N   0  0  0  1  0  0  0  0  0  0  0  0
    2.1437    3.4242   -0.0000 N   0  0  0  1  0  0  0  0  0  0  0  0
    2.5596    1.1286   -0.0159 N   0  0  0  1  0  0  0  0  0  0  0  0
   -2.8879   -2.6033    0.0157 C   0  0  0  1  0  0  0  0  0  0  0  0
   -3.7290   -4.9474    0.0106 C   0  0  0  1  0  0  0  0  0  0  0  0
   -1.3356   -4.1982   -0.0132 C   0  0  0  1  0  0  0  0  0  0  0  0
   -1.6598   -1.9690    0.0073 C   0  0  0  1  0  0  0  0  0  0  0  0
   -0.6546   -3.0400   -0.0171 C   0  0  0  1  0  0  0  0  0  0  0  0
   -4.1095   -5.2934   -1.4304 C   0  0  0  1  0  0  0  0  0  0  0  0
   -4.2333   -1.9246    0.0322 C   0  0  0  1  0  0  0  0  0  0  0  0
   -0.7197   -5.5735   -0.0282 C   0  0  0  1  0  0  0  0  0  0  0  0
   -1.4117   -0.5257    0.0127 C   0  0  0  1  0  0  0  0  0  0  0  0
   -5.2114   -6.3549   -1.4260 C   0  0  0  1  0  0  0  0  0  0  0  0
    0.0021   -0.0041    0.0020 C   0  0  0  1  0  0  0  0  0  0  0  0
    3.9615    5.1301   -0.0078 C   0  0  0  1  0  0  0  0  0  0  0  0
    3.4804    3.7019   -0.0113 C   0  0  0  1  0  0  0  0  0  0  0  0
    3.9913    5.6617   -1.4422 C   0  0  0  1  0  0  0  0  0  0  0  0
    1.7084    2.1353   -0.0028 C   0  0  0  1  0  0  0  0  0  0  0  0
    4.3666    2.6835   -0.0253 C   0  0  0  1  0  0  0  0  0  0  0  0
    4.4797    7.1117   -1.4386 C   0  0  0  1  0  0  0  0  0  0  0  0
    3.8808    1.3507   -0.0273 C   0  0  0  1  0  0  0  0  0  0  0  0
   -3.3685   -5.8432    0.5163 H   0  0  0  1  0  0  0  0  0  0  0  0
   -4.6034   -4.5613    0.5346 H   0  0  0  1  0  0  0  0  0  0  0  0
    0.4186   -2.9202   -0.0313 H   0  0  0  1  0  0  0  0  0  0  0  0
   -4.4700   -4.3976   -1.9360 H   0  0  0  1  0  0  0  0  0  0  0  0
   -3.2351   -5.6794   -1.9544 H   0  0  0  1  0  0  0  0  0  0  0  0
   -4.5479   -1.7665    1.0637 H   0  0  0  1  0  0  0  0  0  0  0  0
   -4.1618   -0.9636   -0.4772 H   0  0  0  1  0  0  0  0  0  0  0  0
   -4.9634   -2.5528   -0.4781 H   0  0  0  1  0  0  0  0  0  0  0  0
   -0.5853   -5.9002   -1.0593 H   0  0  0  1  0  0  0  0  0  0  0  0
    0.2480   -5.5437    0.4726 H   0  0  0  1  0  0  0  0  0  0  0  0
   -1.3763   -6.2713    0.4915 H   0  0  0  1  0  0  0  0  0  0  0  0
   -4.8509   -7.2507   -0.9204 H   0  0  0  1  0  0  0  0  0  0  0  0
   -6.0857   -5.9688   -0.9021 H   0  0  0  1  0  0  0  0  0  0  0  0
   -5.4825   -6.6013   -2.4526 H   0  0  0  1  0  0  0  0  0  0  0  0
    0.5123   -0.3556   -0.8948 H   0  0  0  1  0  0  0  0  0  0  0  0
    0.5293   -0.3651    0.8851 H   0  0  0  1  0  0  0  0  0  0  0  0
    3.2854    5.7397    0.5917 H   0  0  0  1  0  0  0  0  0  0  0  0
    4.9642    5.1746    0.4171 H   0  0  0  1  0  0  0  0  0  0  0  0
    4.6673    5.0521   -2.0417 H   0  0  0  1  0  0  0  0  0  0  0  0
    2.9885    5.6172   -1.8671 H   0  0  0  1  0  0  0  0  0  0  0  0
    1.5006    4.1502    0.0141 H   0  0  0  1  0  0  0  0  0  0  0  0
    5.4285    2.8804   -0.0347 H   0  0  0  1  0  0  0  0  0  0  0  0
    5.4825    7.1562   -1.0137 H   0  0  0  1  0  0  0  0  0  0  0  0
    4.5009    7.4904   -2.4604 H   0  0  0  1  0  0  0  0  0  0  0  0
    3.8037    7.7213   -0.8391 H   0  0  0  1  0  0  0  0  0  0  0  0
  1 17  1  0  0  0  0
  1 21  1  0  0  0  0
  2 15  2  0  0  0  0
  3 24  2  0  0  0  0
  4  7  4  0  0  0  0
  4  8  1  0  0  0  0
  4  9  4  0  0  0  0
  5 19  1  0  0  0  0
  5 21  1  0  0  0  0
  5 45  1  0  0  0  0
  6 21  2  0  0  0  0
  6 24  1  0  0  0  0
  7 10  4  0  0  0  0
  7 13  1  0  0  0  0
  8 12  1  0  0  0  0
  8 25  1  0  0  0  0
  8 26  1  0  0  0  0
  9 11  4  0  0  0  0
  9 14  1  0  0  0  0
 10 11  4  0  0  0  0
 10 15  1  0  0  0  0
 11 27  1  0  0  0  0
 12 16  1  0  0  0  0
 12 28  1  0  0  0  0
 12 29  1  0  0  0  0
 13 30  1  0  0  0  0
 13 31  1  0  0  0  0
 13 32  1  0  0  0  0
 14 33  1  0  0  0  0
 14 34  1  0  0  0  0
 14 35  1  0  0  0  0
 15 17  1  0  0  0  0
 16 36  1  0  0  0  0
 16 37  1  0  0  0  0
 16 38  1  0  0  0  0
 17 39  1  0  0  0  0
 17 40  1  0  0  0  0
 18 19  1  0  0  0  0
 18 20  1  0  0  0  0
 18 41  1  0  0  0  0
 18 42  1  0  0  0  0
 19 22  2  0  0  0  0
 20 23  1  0  0  0  0
 20 43  1  0  0  0  0
 20 44  1  0  0  0  0
 22 24  1  0  0  0  0
 22 46  1  0  0  0  0
 23 47  1  0  0  0  0
 23 48  1  0  0  0  0
 23 49  1  0  0  0  0
M  END
> <Activity>
0.01

> <Mapped(file=2032.csv.activities,property=Cached(PUBCHEM_COMPOUND_CID))>
100

> <MatchIndices>
120 

> <PUBCHEM_ATOM_DEF_STEREO_COUNT>
0

> <PUBCHEM_ATOM_UDEF_STEREO_COUNT>
0

> <PUBCHEM_BONDANNOTATIONS>
10  11  8
19  22  8
22  24  8
4  7  8
4  9  8
5  19  8
5  21  8
6  21  8
6  24  8
7  10  8
9  11  8

> <PUBCHEM_BOND_DEF_STEREO_COUNT>
0

> <PUBCHEM_BOND_UDEF_STEREO_COUNT>
0

> <PUBCHEM_CACTVS_COMPLEXITY>
544

> <PUBCHEM_CACTVS_HBOND_ACCEPTOR>
3

> <PUBCHEM_CACTVS_HBOND_DONOR>
1

> <PUBCHEM_CACTVS_ROTATABLE_BOND>
8

> <PUBCHEM_CACTVS_SUBSKEYS>
AAADceB7MABAAAAAAAAAAAAAAAAAAWAAAAAgAAAAAAAAAAABgAAAHgQQAAAADAzF3gSzgJPMEAioA6VydACCkCFlAjAB2CE4ZNgIIPrgnZGEAYhgkADIycccAAAOAAAAAAAAAAAAAAAAAAAAAAAAAAAAAA==

> <PUBCHEM_CACTVS_TAUTO_COUNT>
6

> <PUBCHEM_CACTVS_TPSA>
88.8

> <PUBCHEM_COMPONENT_COUNT>
1

> <PUBCHEM_COMPOUND_CANONICALIZED>
1

> <PUBCHEM_COMPOUND_CID>
2569114

> <PUBCHEM_COORDINATE_TYPE>
1
5
255

> <PUBCHEM_EXACT_MASS>
347.166748

> <PUBCHEM_HEAVY_ATOM_COUNT>
24

> <PUBCHEM_ISOTOPIC_ATOM_COUNT>
0

> <PUBCHEM_IUPAC_CAS_NAME>
2-[[2-(2,5-dimethyl-1-propyl-3-pyrrolyl)-2-oxoethyl]thio]-6-propyl-1H-pyrimidin-4-one

> <PUBCHEM_IUPAC_INCHI>
InChI=1S/C18H25N3O2S/c1-5-7-14-10-17(23)20-18(19-14)24-11-16(22)15-9-12(3)21(8-6-2)13(15)4/h9-10H,5-8,11H2,1-4H3,(H,19,20,23)

> <PUBCHEM_IUPAC_INCHIKEY>
QLSNNWADLFXIGD-UHFFFAOYSA-N

> <PUBCHEM_IUPAC_NAME>
2-[2-(2,5-dimethyl-1-propylpyrrol-3-yl)-2-oxoethyl]sulfanyl-6-propyl-1H-pyrimidin-4-one

> <PUBCHEM_IUPAC_OPENEYE_NAME>
2-[2-(2,5-dimethyl-1-propyl-pyrrol-3-yl)-2-oxo-ethyl]sulfanyl-6-propyl-1H-pyrimidin-4-one

> <PUBCHEM_IUPAC_SYSTEMATIC_NAME>
2-[2-(2,5-dimethyl-1-propyl-pyrrol-3-yl)-2-oxidanylidene-ethyl]sulfanyl-6-propyl-1H-pyrimidin-4-one

> <PUBCHEM_IUPAC_TRADITIONAL_NAME>
2-[[2-(2,5-dimethyl-1-propyl-pyrrol-3-yl)-2-keto-ethyl]thio]-6-propyl-1H-pyrimidin-4-one

> <PUBCHEM_MOLECULAR_FORMULA>
C18H25N3O2S

> <PUBCHEM_MOLECULAR_WEIGHT>
347.475

> <PUBCHEM_MONOISOTOPIC_WEIGHT>
347.166748

> <PUBCHEM_OPENEYE_CAN_SMILES>
CCCC1=CC(=O)N=C(N1)SCC(=O)C2=C(N(C(=C2)C)CCC)C

> <PUBCHEM_OPENEYE_ISO_SMILES>
CCCC1=CC(=O)N=C(N1)SCC(=O)C2=C(N(C(=C2)C)CCC)C

> <PUBCHEM_TOTAL_CHARGE>
0

> <PUBCHEM_XLOGP3_AA>
3.2

$$$$
Largest isolated from Written by BCL::WriteToMDL,16195106
JMcorina  04211410293D 1   1.00000     0.00000 
CORINA 3.49 0026  01.06.2011
 45 47  0  0  0  0  0  0  0  0999 V2000
    4.6366   -1.8900   -0.7515 F   0  0  0  1  0  0  0  0  0  0  0  0
   -0.0179    1.4653    0.0101 N   0  0  0  1  0  0  0  0  0  0  0  0
    2.0995    0.0476   -1.2596 N   0  0  0  1  0  0  0  0  0  0  0  0
    0.0021   -0.0041    0.0020 C   0  0  0  1  0  0  0  0  0  0  0  0
    1.3479    2.0078   -0.0000 C   0  0  0  1  0  0  0  0  0  0  0  0
    0.7337   -0.4948   -1.2495 C   0  0  0  1  0  0  0  0  0  0  0  0
    2.0796    1.5170   -1.2516 C   0  0  0  1  0  0  0  0  0  0  0  0
   -0.7783    1.9752    1.1589 C   0  0  0  1  0  0  0  0  0  0  0  0
    2.8599   -0.4622   -2.4084 C   0  0  0  1  0  0  0  0  0  0  0  0
   -0.9867    3.4597    1.0044 C   0  0  0  1  0  0  0  0  0  0  0  0
    4.3117   -0.0881   -2.2558 C   0  0  0  1  0  0  0  0  0  0  0  0
   -2.1057    3.9358    0.3470 C   0  0  0  1  0  0  0  0  0  0  0  0
   -0.0619    4.3454    1.5250 C   0  0  0  1  0  0  0  0  0  0  0  0
    5.1348   -0.8305   -1.4257 C   0  0  0  1  0  0  0  0  0  0  0  0
    4.8235    0.9924   -2.9485 C   0  0  0  1  0  0  0  0  0  0  0  0
   -2.2969    5.2975    0.2053 C   0  0  0  1  0  0  0  0  0  0  0  0
   -0.2531    5.7071    1.3833 C   0  0  0  1  0  0  0  0  0  0  0  0
   -1.3694    6.1831    0.7213 C   0  0  0  1  0  0  0  0  0  0  0  0
    6.4684   -0.4859   -1.2869 C   0  0  0  1  0  0  0  0  0  0  0  0
    6.1556    1.3356   -2.8091 C   0  0  0  1  0  0  0  0  0  0  0  0
    6.9769    0.5985   -1.9768 C   0  0  0  1  0  0  0  0  0  0  0  0
   -1.5776    7.6676    0.5663 C   0  0  0  1  0  0  0  0  0  0  0  0
    1.3066    3.0970   -0.0066 H   0  0  0  1  0  0  0  0  0  0  0  0
    1.8803    1.6690    0.8887 H   0  0  0  1  0  0  0  0  0  0  0  0
    0.5192   -0.3656    0.8908 H   0  0  0  1  0  0  0  0  0  0  0  0
   -1.0204   -0.3816   -0.0030 H   0  0  0  1  0  0  0  0  0  0  0  0
    3.1021    1.8946   -1.2465 H   0  0  0  1  0  0  0  0  0  0  0  0
    1.5625    1.8786   -2.1404 H   0  0  0  1  0  0  0  0  0  0  0  0
    0.2013   -0.1561   -2.1383 H   0  0  0  1  0  0  0  0  0  0  0  0
    0.7751   -1.5840   -1.2430 H   0  0  0  1  0  0  0  0  0  0  0  0
   -1.7458    1.4753    1.2050 H   0  0  0  1  0  0  0  0  0  0  0  0
   -0.2242    1.7797    2.0770 H   0  0  0  1  0  0  0  0  0  0  0  0
    2.7671   -1.5474   -2.4529 H   0  0  0  1  0  0  0  0  0  0  0  0
    2.4669   -0.0261   -3.3268 H   0  0  0  1  0  0  0  0  0  0  0  0
   -2.8304    3.2439   -0.0561 H   0  0  0  1  0  0  0  0  0  0  0  0
    0.8099    3.9735    2.0427 H   0  0  0  1  0  0  0  0  0  0  0  0
    4.1829    1.5688   -3.5994 H   0  0  0  1  0  0  0  0  0  0  0  0
   -3.1708    5.6695   -0.3090 H   0  0  0  1  0  0  0  0  0  0  0  0
    0.4693    6.3991    1.7903 H   0  0  0  1  0  0  0  0  0  0  0  0
    7.1112   -1.0640   -0.6395 H   0  0  0  1  0  0  0  0  0  0  0  0
    6.5549    2.1801   -3.3512 H   0  0  0  1  0  0  0  0  0  0  0  0
    8.0172    0.8677   -1.8683 H   0  0  0  1  0  0  0  0  0  0  0  0
   -2.1423    8.0462    1.4183 H   0  0  0  1  0  0  0  0  0  0  0  0
   -0.6100    8.1674    0.5207 H   0  0  0  1  0  0  0  0  0  0  0  0
   -2.1310    7.8629   -0.3522 H   0  0  0  1  0  0  0  0  0  0  0  0
  1 14  1  0  0  0  0
  2  4  1  0  0  0  0
  2  5  1  0  0  0  0
  2  8  1  0  0  0  0
  3  6  1  0  0  0  0
  3  7  1  0  0  0  0
  3  9  1  0  0  0  0
  4  6  1  0  0  0  0
  4 25  1  0  0  0  0
  4 26  1  0  0  0  0
  5  7  1  0  0  0  0
  5 23  1  0  0  0  0
  5 24  1  0  0  0  0
  6 29  1  0  0  0  0
  6 30  1  0  0  0  0
  7 27  1  0  0  0  0
  7 28  1  0  0  0  0
  8 10  1  0  0  0  0
  8 31  1  0  0  0  0
  8 32  1  0  0  0  0
  9 11  1  0  0  0  0
  9 33  1  0  0  0  0
  9 34  1  0  0  0  0
 10 12  4  0  0  0  0
 10 13  4  0  0  0  0
 11 14  4  0  0  0  0
 11 15  4  0  0  0  0
 12 16  4  0  0  0  0
 12 35  1  0  0  0  0
 13 17  4  0  0  0  0
 13 36  1  0  0  0  0
 14 19  4  0  0  0  0
 15 20  4  0  0  0  0
 15 37  1  0  0  0  0
 16 18  4  0  0  0  0
 16 38  1  0  0  0  0
 17 18  4  0  0  0  0
 17 39  1  0  0  0  0
 18 22  1  0  0  0  0
 19 21  4  0  0  0  0
 19 40  1  0  0  0  0
 20 21  4  0  0  0  0
 20 41  1  0  0  0  0
 21 42  1  0  0  0  0
 22 43  1  0  0  0  0
 22 44  1  0  0  0  0
 22 45  1  0  0  0  0
M  END
> <Activity>
0.01

> <Mapped(file=2032.csv.activities,property=Cached(PUBCHEM_COMPOUND_CID))>
100

> <MatchIndices>
37 

> <PUBCHEM_ATOM_DEF_STEREO_COUNT>
0

> <PUBCHEM_ATOM_UDEF_STEREO_COUNT>
0

> <PUBCHEM_BONDANNOTATIONS>
14  16  8
14  17  8
15  18  8
15  19  8
16  20  8
17  21  8
18  23  8
19  24  8
20  22  8
21  22  8
23  25  8
24  25  8

> <PUBCHEM_BOND_DEF_STEREO_COUNT>
0

> <PUBCHEM_BOND_UDEF_STEREO_COUNT>
0

> <PUBCHEM_CACTVS_COMPLEXITY>
391

> <PUBCHEM_CACTVS_HBOND_ACCEPTOR>
7

> <PUBCHEM_CACTVS_HBOND_DONOR>
2

> <PUBCHEM_CACTVS_ROTATABLE_BOND>
5

> <PUBCHEM_CACTVS_SUBSKEYS>
AAADceB7OQAAAAAAAAAAAAAAAAAAAAAAAAA8YIAAAAAAAAABQAAAHwAACAAADADBmAwyCIMAAgCIAiDSCAKCAAAgAAAIiABIBIgJYCKAkRGUIAhggACJiAcQgAAOQAAAAAAAAACAAAAAAAAAAAAAAAAAAA==

> <PUBCHEM_CACTVS_TAUTO_COUNT>
1

> <PUBCHEM_CACTVS_TPSA>
81.1

> <PUBCHEM_COMPONENT_COUNT>
2

> <PUBCHEM_COMPOUND_CANONICALIZED>
1

> <PUBCHEM_COMPOUND_CID>
16195106

> <PUBCHEM_COORDINATE_TYPE>
1
5
255

> <PUBCHEM_EXACT_MASS>
388.179836

> <PUBCHEM_HEAVY_ATOM_COUNT>
28

> <PUBCHEM_ISOTOPIC_ATOM_COUNT>
0

> <PUBCHEM_IUPAC_CAS_NAME>
1-[(2-fluorophenyl)methyl]-4-[(4-methylphenyl)methyl]piperazine; oxalic acid

> <PUBCHEM_IUPAC_INCHI>
InChI=1S/C19H23FN2.C2H2O4/c1-16-6-8-17(9-7-16)14-21-10-12-22(13-11-21)15-18-4-2-3-5-19(18)20;3-1(4)2(5)6/h2-9H,10-15H2,1H3;(H,3,4)(H,5,6)

> <PUBCHEM_IUPAC_INCHIKEY>
FFZYXEFIPGEJCC-UHFFFAOYSA-N

> <PUBCHEM_IUPAC_NAME>
1-[(2-fluorophenyl)methyl]-4-[(4-methylphenyl)methyl]piperazine; oxalic acid

> <PUBCHEM_IUPAC_OPENEYE_NAME>
1-[(2-fluorophenyl)methyl]-4-(p-tolylmethyl)piperazine; oxalic acid

> <PUBCHEM_IUPAC_SYSTEMATIC_NAME>
ethanedioic acid; 1-[(2-fluorophenyl)methyl]-4-[(4-methylphenyl)methyl]piperazine

> <PUBCHEM_IUPAC_TRADITIONAL_NAME>
1-(2-fluorobenzyl)-4-(4-methylbenzyl)piperazine; oxalic acid

> <PUBCHEM_MOLECULAR_FORMULA>
C21H25FN2O4

> <PUBCHEM_MOLECULAR_WEIGHT>
388.432603

> <PUBCHEM_MONOISOTOPIC_WEIGHT>
388.179836

> <PUBCHEM_OPENEYE_CAN_SMILES>
CC1=CC=C(C=C1)CN2CCN(CC2)CC3=CC=CC=C3F.C(=O)(C(=O)O)O

> <PUBCHEM_OPENEYE_ISO_SMILES>
CC1=CC=C(C=C1)CN2CCN(CC2)CC3=CC=CC=C3F.C(=O)(C(=O)O)O

> <PUBCHEM_TOTAL_CHARGE>
0

$$$$
Largest isolated from Written by BCL::WriteToMDL,791864
JMcorina  04211410293D 1   1.00000     0.00000 
CORINA 3.49 0026  01.06.2011
 44 46  0  0  0  0  0  0  0  0999 V2000
   -0.0163    1.3538    0.0095 O   0  0  0  1  0  0  0  0  0  0  0  0
    1.9809   -6.2419   -3.4173 O   0  0  0  1  0  0  0  0  0  0  0  0
   -0.0895   -4.7968   -1.3895 N   0  0  0  1  0  0  0  0  0  0  0  0
    0.0799   -2.8000   -0.0151 C   0  0  0  1  0  0  0  0  0  0  0  0
   -1.1647   -2.1469    0.0012 C   0  0  0  1  0  0  0  0  0  0  0  0
    0.1436   -4.3056   -0.0248 C   0  0  0  1  0  0  0  0  0  0  0  0
   -1.2065   -0.7305    0.0097 C   0  0  0  1  0  0  0  0  0  0  0  0
   -0.0345   -6.2640   -1.4375 C   0  0  0  1  0  0  0  0  0  0  0  0
    1.2274   -2.0677   -0.0278 C   0  0  0  1  0  0  0  0  0  0  0  0
    0.0021   -0.0041    0.0020 C   0  0  0  1  0  0  0  0  0  0  0  0
   -0.2776   -6.7298   -2.8499 C   0  0  0  1  0  0  0  0  0  0  0  0
   -2.3687   -2.8712    0.0087 C   0  0  0  1  0  0  0  0  0  0  0  0
    1.1916   -0.6757   -0.0249 C   0  0  0  1  0  0  0  0  0  0  0  0
   -2.4491   -0.0778    0.0250 C   0  0  0  1  0  0  0  0  0  0  0  0
   -3.5556   -2.2046    0.0242 C   0  0  0  1  0  0  0  0  0  0  0  0
   -3.5959   -0.8120    0.0316 C   0  0  0  1  0  0  0  0  0  0  0  0
    0.7522   -6.6957   -3.7793 C   0  0  0  1  0  0  0  0  0  0  0  0
   -1.5242   -7.1964   -3.2190 C   0  0  0  1  0  0  0  0  0  0  0  0
    0.5252   -7.1252   -5.0786 C   0  0  0  1  0  0  0  0  0  0  0  0
   -1.7479   -7.6240   -4.5149 C   0  0  0  1  0  0  0  0  0  0  0  0
   -0.7251   -7.5857   -5.4442 C   0  0  0  1  0  0  0  0  0  0  0  0
    1.2479    2.0199    0.0010 C   0  0  0  1  0  0  0  0  0  0  0  0
    2.9931   -6.2351   -4.4260 C   0  0  0  1  0  0  0  0  0  0  0  0
   -0.6209   -4.7059    0.6409 H   0  0  0  1  0  0  0  0  0  0  0  0
    1.1273   -4.6298    0.3150 H   0  0  0  1  0  0  0  0  0  0  0  0
    0.9479   -6.6018   -1.1075 H   0  0  0  1  0  0  0  0  0  0  0  0
   -0.8003   -6.6779   -0.7815 H   0  0  0  1  0  0  0  0  0  0  0  0
   -0.9674   -4.4558   -1.7516 H   0  0  0  1  0  0  0  0  0  0  0  0
    2.1810   -2.5745   -0.0399 H   0  0  0  1  0  0  0  0  0  0  0  0
   -2.3526   -3.9510    0.0020 H   0  0  0  1  0  0  0  0  0  0  0  0
    2.1171   -0.1193   -0.0348 H   0  0  0  1  0  0  0  0  0  0  0  0
   -2.4954    1.0012    0.0321 H   0  0  0  1  0  0  0  0  0  0  0  0
   -4.4797   -2.7636    0.0296 H   0  0  0  1  0  0  0  0  0  0  0  0
   -4.5507   -0.3074    0.0434 H   0  0  0  1  0  0  0  0  0  0  0  0
   -2.3247   -7.2277   -2.4947 H   0  0  0  1  0  0  0  0  0  0  0  0
    1.3250   -7.0992   -5.8038 H   0  0  0  1  0  0  0  0  0  0  0  0
   -2.7232   -7.9889   -4.8014 H   0  0  0  1  0  0  0  0  0  0  0  0
   -0.9024   -7.9198   -6.4558 H   0  0  0  1  0  0  0  0  0  0  0  0
    1.8173    1.7298    0.8840 H   0  0  0  1  0  0  0  0  0  0  0  0
    1.8003    1.7394   -0.8958 H   0  0  0  1  0  0  0  0  0  0  0  0
    1.0905    3.0984    0.0083 H   0  0  0  1  0  0  0  0  0  0  0  0
    3.9224   -5.8507   -4.0056 H   0  0  0  1  0  0  0  0  0  0  0  0
    3.1512   -7.2507   -4.7889 H   0  0  0  1  0  0  0  0  0  0  0  0
    2.6778   -5.5987   -5.2528 H   0  0  0  1  0  0  0  0  0  0  0  0
  1 10  1  0  0  0  0
  1 22  1  0  0  0  0
  2 17  1  0  0  0  0
  2 23  1  0  0  0  0
  3  6  1  0  0  0  0
  3  8  1  0  0  0  0
  3 28  1  0  0  0  0
  4  5  4  0  0  0  0
  4  6  1  0  0  0  0
  4  9  4  0  0  0  0
  5  7  4  0  0  0  0
  5 12  4  0  0  0  0
  6 24  1  0  0  0  0
  6 25  1  0  0  0  0
  7 10  4  0  0  0  0
  7 14  4  0  0  0  0
  8 11  1  0  0  0  0
  8 26  1  0  0  0  0
  8 27  1  0  0  0  0
  9 13  4  0  0  0  0
  9 29  1  0  0  0  0
 10 13  4  0  0  0  0
 11 17  4  0  0  0  0
 11 18  4  0  0  0  0
 12 15  4  0  0  0  0
 12 30  1  0  0  0  0
 13 31  1  0  0  0  0
 14 16  4  0  0  0  0
 14 32  1  0  0  0  0
 15 16  4  0  0  0  0
 15 33  1  0  0  0  0
 16 34  1  0  0  0  0
 17 19  4  0  0  0  0
 18 20  4  0  0  0  0
 18 35  1  0  0  0  0
 19 21  4  0  0  0  0
 19 36  1  0  0  0  0
 20 21  4  0  0  0  0
 20 37  1  0  0  0  0
 21 38  1  0  0  0  0
 22 39  1  0  0  0  0
 22 40  1  0  0  0  0
 22 41  1  0  0  0  0
 23 42  1  0  0  0  0
 23 43  1  0  0  0  0
 23 44  1  0  0  0  0
M  END
> <Activity>
0.01

> <Mapped(file=2032.csv.activities,property=Cached(PUBCHEM_COMPOUND_CID))>
100

> <MatchIndices>
75 

> <PUBCHEM_ATOM_DEF_STEREO_COUNT>
0

> <PUBCHEM_ATOM_UDEF_STEREO_COUNT>
0

> <PUBCHEM_BONDANNOTATIONS>
10  13  8
11  17  8
11  18  8
12  15  8
14  16  8
15  16  8
17  19  8
18  20  8
19  21  8
20  21  8
4  5  8
4  9  8
5  12  8
5  7  8
7  10  8
7  14  8
9  13  8

> <PUBCHEM_BOND_DEF_STEREO_COUNT>
0

> <PUBCHEM_BOND_UDEF_STEREO_COUNT>
0

> <PUBCHEM_CACTVS_COMPLEXITY>
349

> <PUBCHEM_CACTVS_HBOND_ACCEPTOR>
3

> <PUBCHEM_CACTVS_HBOND_DONOR>
1

> <PUBCHEM_CACTVS_ROTATABLE_BOND>
6

> <PUBCHEM_CACTVS_SUBSKEYS>
AAADceB6MAAAAAAAAAAAAAAAAAAAAAAAAAAwYMAAAAAAAADBVAAAHgAQAAAADATBmAYyBsLABACAAiBCAACCCAAgIAAIiIAODIgMJiKEsRuEMChmwBGIqAeQ0PIOoAADAAAYAABAAAYAADAAAAAAAAAAAA==

> <PUBCHEM_CACTVS_TAUTO_COUNT>
1

> <PUBCHEM_CACTVS_TPSA>
30.5

> <PUBCHEM_COMPONENT_COUNT>
1

> <PUBCHEM_COMPOUND_CANONICALIZED>
1

> <PUBCHEM_COMPOUND_CID>
791864

> <PUBCHEM_COORDINATE_TYPE>
1
5
255

> <PUBCHEM_EXACT_MASS>
307.157229

> <PUBCHEM_HEAVY_ATOM_COUNT>
23

> <PUBCHEM_ISOTOPIC_ATOM_COUNT>
0

> <PUBCHEM_IUPAC_CAS_NAME>
N-[(4-methoxy-1-naphthalenyl)methyl]-1-(2-methoxyphenyl)methanamine

> <PUBCHEM_IUPAC_INCHI>
InChI=1S/C20H21NO2/c1-22-19-10-6-3-7-16(19)14-21-13-15-11-12-20(23-2)18-9-5-4-8-17(15)18/h3-12,21H,13-14H2,1-2H3

> <PUBCHEM_IUPAC_INCHIKEY>
BVTVXDNDPDQCNL-UHFFFAOYSA-N

> <PUBCHEM_IUPAC_NAME>
N-[(4-methoxynaphthalen-1-yl)methyl]-1-(2-methoxyphenyl)methanamine

> <PUBCHEM_IUPAC_OPENEYE_NAME>
N-[(4-methoxy-1-naphthyl)methyl]-1-(2-methoxyphenyl)methanamine

> <PUBCHEM_IUPAC_SYSTEMATIC_NAME>
N-[(4-methoxynaphthalen-1-yl)methyl]-1-(2-methoxyphenyl)methanamine

> <PUBCHEM_IUPAC_TRADITIONAL_NAME>
(4-methoxy-1-naphthyl)methyl-o-anisyl-amine

> <PUBCHEM_MOLECULAR_FORMULA>
C20H21NO2

> <PUBCHEM_MOLECULAR_WEIGHT>
307.38624

> <PUBCHEM_MONOISOTOPIC_WEIGHT>
307.157229

> <PUBCHEM_OPENEYE_CAN_SMILES>
COC1=CC=CC=C1CNCC2=CC=C(C3=CC=CC=C23)OC

> <PUBCHEM_OPENEYE_ISO_SMILES>
COC1=CC=CC=C1CNCC2=CC=C(C3=CC=CC=C23)OC

> <PUBCHEM_TOTAL_CHARGE>
0

> <PUBCHEM_XLOGP3_AA>
4

$$$$
Largest isolated from Written by BCL::WriteToMDL,2842642
JMcorina  04211410293D 1   1.00000     0.00000 
CORINA 3.49 0026  01.06.2011
 38 39  0  0  0  0  0  0  0  0999 V2000
    0.1510    1.3340    0.1558 S   0  0  0  1  0  0  0  0  0  0  0  0
    0.4269   -0.0430    0.3724 O   0  0  0  1  0  0  0  0  0  0  0  0
    1.1671    2.3165    0.0085 O   0  0  0  1  0  0  0  0  0  0  0  0
   -3.3369    0.4717    5.2211 O   0  5  0  1  0  0  0  0  0  0  0  0
   -3.7192   -0.5783    3.4317 O   0  0  0  1  0  0  0  0  0  0  0  0
   -0.7796    1.4151   -1.2115 N   0  0  0  1  0  0  0  0  0  0  0  0
   -3.1978    0.3540    4.0168 N   0  3  0  1  0  0  0  0  0  0  0  0
   -1.2649    2.7114   -1.6915 C   0  0  0  1  0  0  0  0  0  0  0  0
   -1.2916    2.7112   -3.1983 C   0  0  0  1  0  0  0  0  0  0  0  0
   -0.8557    1.8577    1.5038 C   0  0  0  1  0  0  0  0  0  0  0  0
   -2.6771    2.9572   -1.1565 C   0  0  0  1  0  0  0  0  0  0  0  0
   -1.6050    0.9332    2.2067 C   0  0  0  1  0  0  0  0  0  0  0  0
   -0.8918    3.1926    1.8619 C   0  0  0  1  0  0  0  0  0  0  0  0
   -2.3949    1.3441    3.2643 C   0  0  0  1  0  0  0  0  0  0  0  0
   -2.4354    2.6794    3.6187 C   0  0  0  1  0  0  0  0  0  0  0  0
   -0.8982    3.8374   -3.8967 C   0  0  0  1  0  0  0  0  0  0  0  0
   -1.7041    1.5828   -3.8821 C   0  0  0  1  0  0  0  0  0  0  0  0
   -1.6814    3.6034    2.9192 C   0  0  0  1  0  0  0  0  0  0  0  0
   -0.9227    3.8372   -5.2788 C   0  0  0  1  0  0  0  0  0  0  0  0
   -1.7286    1.5826   -5.2642 C   0  0  0  1  0  0  0  0  0  0  0  0
   -3.2968    3.1274    4.7712 C   0  0  0  1  0  0  0  0  0  0  0  0
   -1.3402    2.7106   -5.9625 C   0  0  0  1  0  0  0  0  0  0  0  0
   -0.6007    3.5008   -1.3400 H   0  0  0  1  0  0  0  0  0  0  0  0
   -1.0035    0.6043   -1.6946 H   0  0  0  1  0  0  0  0  0  0  0  0
   -2.6578    2.9573   -0.0666 H   0  0  0  1  0  0  0  0  0  0  0  0
   -3.0382    3.9217   -1.5136 H   0  0  0  1  0  0  0  0  0  0  0  0
   -3.3414    2.1677   -1.5080 H   0  0  0  1  0  0  0  0  0  0  0  0
   -1.5736   -0.1102    1.9296 H   0  0  0  1  0  0  0  0  0  0  0  0
   -0.3026    3.9143    1.3156 H   0  0  0  1  0  0  0  0  0  0  0  0
   -0.5720    4.7175   -3.3625 H   0  0  0  1  0  0  0  0  0  0  0  0
   -2.0069    0.7013   -3.3365 H   0  0  0  1  0  0  0  0  0  0  0  0
   -1.7096    4.6462    3.1989 H   0  0  0  1  0  0  0  0  0  0  0  0
   -0.6160    4.7173   -5.8244 H   0  0  0  1  0  0  0  0  0  0  0  0
   -2.0505    0.7010   -5.7985 H   0  0  0  1  0  0  0  0  0  0  0  0
   -2.7523    2.9924    5.7058 H   0  0  0  1  0  0  0  0  0  0  0  0
   -3.5506    4.1802    4.6474 H   0  0  0  1  0  0  0  0  0  0  0  0
   -4.2106    2.5336    4.7941 H   0  0  0  1  0  0  0  0  0  0  0  0
   -1.3597    2.7106   -7.0424 H   0  0  0  1  0  0  0  0  0  0  0  0
  1  2  2  0  0  0  0
  1  3  2  0  0  0  0
  1  6  1  0  0  0  0
  1 10  1  0  0  0  0
  4  7  1  0  0  0  0
  5  7  2  0  0  0  0
  6  8  1  0  0  0  0
  6 24  1  0  0  0  0
  7 14  1  0  0  0  0
  8  9  1  0  0  0  0
  8 11  1  0  0  0  0
  8 23  1  0  0  0  0
  9 16  4  0  0  0  0
  9 17  4  0  0  0  0
 10 12  4  0  0  0  0
 10 13  4  0  0  0  0
 11 25  1  0  0  0  0
 11 26  1  0  0  0  0
 11 27  1  0  0  0  0
 12 14  4  0  0  0  0
 12 28  1  0  0  0  0
 13 18  4  0  0  0  0
 13 29  1  0  0  0  0
 14 15  4  0  0  0  0
 15 18  4  0  0  0  0
 15 21  1  0  0  0  0
 16 19  4  0  0  0  0
 16 30  1  0  0  0  0
 17 20  4  0  0  0  0
 17 31  1  0  0  0  0
 18 32  1  0  0  0  0
 19 22  4  0  0  0  0
 19 33  1  0  0  0  0
 20 22  4  0  0  0  0
 20 34  1  0  0  0  0
 21 35  1  0  0  0  0
 21 36  1  0  0  0  0
 21 37  1  0  0  0  0
 22 38  1  0  0  0  0
M  END
> <Activity>
0.01

> <Mapped(file=2032.csv.activities,property=Cached(PUBCHEM_COMPOUND_CID))>
100

> <MatchIndices>
124 

> <PUBCHEM_ATOM_DEF_STEREO_COUNT>
0

> <PUBCHEM_ATOM_UDEF_STEREO_COUNT>
1

> <PUBCHEM_BONDANNOTATIONS>
10  12  8
10  13  8
12  14  8
13  18  8
14  15  8
15  18  8
16  19  8
17  20  8
19  22  8
20  22  8
8  11  3
9  16  8
9  17  8

> <PUBCHEM_BOND_DEF_STEREO_COUNT>
0

> <PUBCHEM_BOND_UDEF_STEREO_COUNT>
0

> <PUBCHEM_CACTVS_COMPLEXITY>
477

> <PUBCHEM_CACTVS_HBOND_ACCEPTOR>
5

> <PUBCHEM_CACTVS_HBOND_DONOR>
1

> <PUBCHEM_CACTVS_ROTATABLE_BOND>
4

> <PUBCHEM_CACTVS_SUBSKEYS>
AAADceBzOABAAAAAAAAAAAAAAAAAAAAAAAAwYAAAAAAAAAABQAAAHAQUQAAADCjBWAQywYBQQAKBAiRCQ3DCABAgAgAoiJgAZIoIICKAkZGAIARgkAAIyAcQgIAOEAAAACACAAAgAAAAQAQAAAAAAAAAAA==

> <PUBCHEM_CACTVS_TAUTO_COUNT>
1

> <PUBCHEM_CACTVS_TPSA>
100

> <PUBCHEM_COMPONENT_COUNT>
1

> <PUBCHEM_COMPOUND_CANONICALIZED>
1

> <PUBCHEM_COMPOUND_CID>
2842642

> <PUBCHEM_COORDINATE_TYPE>
1
5
255

> <PUBCHEM_EXACT_MASS>
320.083078

> <PUBCHEM_HEAVY_ATOM_COUNT>
22

> <PUBCHEM_ISOTOPIC_ATOM_COUNT>
0

> <PUBCHEM_IUPAC_CAS_NAME>
4-methyl-3-nitro-N-(1-phenylethyl)benzenesulfonamide

> <PUBCHEM_IUPAC_INCHI>
InChI=1S/C15H16N2O4S/c1-11-8-9-14(10-15(11)17(18)19)22(20,21)16-12(2)13-6-4-3-5-7-13/h3-10,12,16H,1-2H3

> <PUBCHEM_IUPAC_INCHIKEY>
NTKZVGOOKKHPEV-UHFFFAOYSA-N

> <PUBCHEM_IUPAC_NAME>
4-methyl-3-nitro-N-(1-phenylethyl)benzenesulfonamide

> <PUBCHEM_IUPAC_OPENEYE_NAME>
4-methyl-3-nitro-N-(1-phenylethyl)benzenesulfonamide

> <PUBCHEM_IUPAC_SYSTEMATIC_NAME>
4-methyl-3-nitro-N-(1-phenylethyl)benzenesulfonamide

> <PUBCHEM_IUPAC_TRADITIONAL_NAME>
4-methyl-3-nitro-N-(1-phenylethyl)benzenesulfonamide

> <PUBCHEM_MOLECULAR_FORMULA>
C15H16N2O4S

> <PUBCHEM_MOLECULAR_WEIGHT>
320.36354

> <PUBCHEM_MONOISOTOPIC_WEIGHT>
320.083078

> <PUBCHEM_OPENEYE_CAN_SMILES>
CC1=C(C=C(C=C1)S(=O)(=O)NC(C)C2=CC=CC=C2)[N+](=O)[O-]

> <PUBCHEM_OPENEYE_ISO_SMILES>
CC1=C(C=C(C=C1)S(=O)(=O)NC(C)C2=CC=CC=C2)[N+](=O)[O-]

> <PUBCHEM_TOTAL_CHARGE>
0

> <PUBCHEM_XLOGP3_AA>
3

$$$$
Largest isolated from Written by BCL::WriteToMDL,1267712
JMcorina  04211410293D 1   1.00000     0.00000 
CORINA 3.49 0026  01.06.2011
 44 47  0  0  0  0  0  0  0  0999 V2000
    2.7259    5.9550   -7.5203 Cl  0  0  0  1  0  0  0  0  0  0  0  0
    0.0572    1.7244    0.0268 S   0  0  0  1  0  0  0  0  0  0  0  0
    2.1281    4.3556   -1.0820 O   0  0  0  1  0  0  0  0  0  0  0  0
    2.5254    7.9130   -1.1407 O   0  0  0  1  0  0  0  0  0  0  0  0
   -0.9713   -0.8806    0.0297 N   0  0  0  1  0  0  0  0  0  0  0  0
    1.1818   -0.7886   -0.0030 N   0  0  0  1  0  0  0  0  0  0  0  0
    0.8490   -2.0299   -0.0008 N   0  0  0  1  0  0  0  0  0  0  0  0
   -2.3274   -0.5236    0.0524 C   0  0  0  1  0  0  0  0  0  0  0  0
    0.1055   -0.0370    0.0175 C   0  0  0  1  0  0  0  0  0  0  0  0
   -0.4486   -2.1467    0.0211 C   0  0  0  1  0  0  0  0  0  0  0  0
    1.8302    2.0875    0.0017 C   0  0  0  1  0  0  0  0  0  0  0  0
    2.0374    3.5802    0.0058 C   0  0  0  1  0  0  0  0  0  0  0  0
    2.3123    5.6382   -0.7053 C   0  0  0  1  0  0  0  0  0  0  0  0
    2.1620    4.3525    1.1088 C   0  0  0  1  0  0  0  0  0  0  0  0
   -2.8875    0.1496   -1.0247 C   0  0  0  1  0  0  0  0  0  0  0  0
   -3.1135   -0.8478    1.1496 C   0  0  0  1  0  0  0  0  0  0  0  0
    2.3388    5.6734    0.6720 C   0  0  0  1  0  0  0  0  0  0  0  0
    2.4586    6.7878   -1.6007 C   0  0  0  1  0  0  0  0  0  0  0  0
   -1.2295   -3.4355    0.0348 C   0  0  0  1  0  0  0  0  0  0  0  0
    2.5250    6.5820   -3.0630 C   0  0  0  1  0  0  0  0  0  0  0  0
   -4.2233    0.4999   -0.9994 C   0  0  0  1  0  0  0  0  0  0  0  0
   -4.4488   -0.4949    1.1692 C   0  0  0  1  0  0  0  0  0  0  0  0
   -5.0026    0.1806    0.0973 C   0  0  0  1  0  0  0  0  0  0  0  0
    2.7885    7.6595   -3.9114 C   0  0  0  1  0  0  0  0  0  0  0  0
    2.3303    5.3082   -3.6013 C   0  0  0  1  0  0  0  0  0  0  0  0
    2.8492    7.4613   -5.2745 C   0  0  0  1  0  0  0  0  0  0  0  0
    2.3934    5.1225   -4.9661 C   0  0  0  1  0  0  0  0  0  0  0  0
    2.6490    6.1965   -5.8029 C   0  0  0  1  0  0  0  0  0  0  0  0
    2.3027    1.6527    0.8825 H   0  0  0  1  0  0  0  0  0  0  0  0
    2.2757    1.6614   -0.8973 H   0  0  0  1  0  0  0  0  0  0  0  0
    2.1308    4.0152    2.1343 H   0  0  0  1  0  0  0  0  0  0  0  0
    2.4703    6.5470    1.2933 H   0  0  0  1  0  0  0  0  0  0  0  0
   -2.2792    0.3995   -1.8814 H   0  0  0  1  0  0  0  0  0  0  0  0
   -2.6816   -1.3758    1.9869 H   0  0  0  1  0  0  0  0  0  0  0  0
   -1.4353   -3.7466   -0.9894 H   0  0  0  1  0  0  0  0  0  0  0  0
   -0.6479   -4.2073    0.5390 H   0  0  0  1  0  0  0  0  0  0  0  0
   -2.1700   -3.2849    0.5648 H   0  0  0  1  0  0  0  0  0  0  0  0
   -4.6595    1.0239   -1.8370 H   0  0  0  1  0  0  0  0  0  0  0  0
   -5.0609   -0.7469    2.0226 H   0  0  0  1  0  0  0  0  0  0  0  0
   -6.0468    0.4558    0.1150 H   0  0  0  1  0  0  0  0  0  0  0  0
    2.9440    8.6462   -3.5007 H   0  0  0  1  0  0  0  0  0  0  0  0
    2.1310    4.4702   -2.9498 H   0  0  0  1  0  0  0  0  0  0  0  0
    3.0528    8.2938   -5.9317 H   0  0  0  1  0  0  0  0  0  0  0  0
    2.2430    4.1379   -5.3835 H   0  0  0  1  0  0  0  0  0  0  0  0
  1 28  1  0  0  0  0
  2  9  1  0  0  0  0
  2 11  1  0  0  0  0
  3 12  4  0  0  0  0
  3 13  4  0  0  0  0
  4 18  2  0  0  0  0
  5  8  1  0  0  0  0
  5  9  4  0  0  0  0
  5 10  4  0  0  0  0
  6  7  4  0  0  0  0
  6  9  4  0  0  0  0
  7 10  4  0  0  0  0
  8 15  4  0  0  0  0
  8 16  4  0  0  0  0
 10 19  1  0  0  0  0
 11 12  1  0  0  0  0
 11 29  1  0  0  0  0
 11 30  1  0  0  0  0
 12 14  4  0  0  0  0
 13 17  4  0  0  0  0
 13 18  1  0  0  0  0
 14 17  4  0  0  0  0
 14 31  1  0  0  0  0
 15 21  4  0  0  0  0
 15 33  1  0  0  0  0
 16 22  4  0  0  0  0
 16 34  1  0  0  0  0
 17 32  1  0  0  0  0
 18 20  1  0  0  0  0
 19 35  1  0  0  0  0
 19 36  1  0  0  0  0
 19 37  1  0  0  0  0
 20 24  4  0  0  0  0
 20 25  4  0  0  0  0
 21 23  4  0  0  0  0
 21 38  1  0  0  0  0
 22 23  4  0  0  0  0
 22 39  1  0  0  0  0
 23 40  1  0  0  0  0
 24 26  4  0  0  0  0
 24 41  1  0  0  0  0
 25 27  4  0  0  0  0
 25 42  1  0  0  0  0
 26 28  4  0  0  0  0
 26 43  1  0  0  0  0
 27 28  4  0  0  0  0
 27 44  1  0  0  0  0
M  END
> <Activity>
0.01

> <Mapped(file=2032.csv.activities,property=Cached(PUBCHEM_COMPOUND_CID))>
100

> <MatchIndices>
159 

> <PUBCHEM_ATOM_DEF_STEREO_COUNT>
0

> <PUBCHEM_ATOM_UDEF_STEREO_COUNT>
0

> <PUBCHEM_BONDANNOTATIONS>
12  14  8
13  17  8
14  17  8
15  21  8
16  22  8
20  24  8
20  25  8
21  23  8
22  23  8
24  26  8
25  27  8
26  28  8
27  28  8
3  12  8
3  13  8
5  10  8
5  9  8
6  7  8
6  9  8
7  10  8
8  15  8
8  16  8

> <PUBCHEM_BOND_DEF_STEREO_COUNT>
0

> <PUBCHEM_BOND_UDEF_STEREO_COUNT>
0

> <PUBCHEM_CACTVS_COMPLEXITY>
526

> <PUBCHEM_CACTVS_HBOND_ACCEPTOR>
3

> <PUBCHEM_CACTVS_HBOND_DONOR>
0

> <PUBCHEM_CACTVS_ROTATABLE_BOND>
6

> <PUBCHEM_CACTVS_SUBSKEYS>
AAADceB7MABEAAAAAAAAAAAAAAAAAWJAAAAwYAAAAAAAAAAB9AAAHgYIAAAADA6F2yCz1IcMFEiqAqZyZAKS2CtlJ7AdiAFWbsiMLjLlv5+GOSjkyBPI6aeYzuDuBAAAAAAAAAAIAAAAAAAAAAAAAAAAAA==

> <PUBCHEM_CACTVS_TAUTO_COUNT>
1

> <PUBCHEM_CACTVS_TPSA>
86.2

> <PUBCHEM_COMPONENT_COUNT>
1

> <PUBCHEM_COMPOUND_CANONICALIZED>
1

> <PUBCHEM_COMPOUND_CID>
1267712

> <PUBCHEM_COORDINATE_TYPE>
1
5
255

> <PUBCHEM_EXACT_MASS>
409.065175

> <PUBCHEM_HEAVY_ATOM_COUNT>
28

> <PUBCHEM_ISOTOPIC_ATOM_COUNT>
0

> <PUBCHEM_IUPAC_CAS_NAME>
(4-chlorophenyl)-[5-[[(5-methyl-4-phenyl-1,2,4-triazol-3-yl)thio]methyl]-2-furanyl]methanone

> <PUBCHEM_IUPAC_INCHI>
InChI=1S/C21H16ClN3O2S/c1-14-23-24-21(25(14)17-5-3-2-4-6-17)28-13-18-11-12-19(27-18)20(26)15-7-9-16(22)10-8-15/h2-12H,13H2,1H3

> <PUBCHEM_IUPAC_INCHIKEY>
PMUFZQFGXVQWPX-UHFFFAOYSA-N

> <PUBCHEM_IUPAC_NAME>
(4-chlorophenyl)-[5-[(5-methyl-4-phenyl-1,2,4-triazol-3-yl)sulfanylmethyl]furan-2-yl]methanone

> <PUBCHEM_IUPAC_OPENEYE_NAME>
(4-chlorophenyl)-[5-[(5-methyl-4-phenyl-1,2,4-triazol-3-yl)sulfanylmethyl]-2-furyl]methanone

> <PUBCHEM_IUPAC_SYSTEMATIC_NAME>
(4-chlorophenyl)-[5-[(5-methyl-4-phenyl-1,2,4-triazol-3-yl)sulfanylmethyl]furan-2-yl]methanone

> <PUBCHEM_IUPAC_TRADITIONAL_NAME>
(4-chlorophenyl)-[5-[[(5-methyl-4-phenyl-1,2,4-triazol-3-yl)thio]methyl]-2-furyl]methanone

> <PUBCHEM_MOLECULAR_FORMULA>
C21H16ClN3O2S

> <PUBCHEM_MOLECULAR_WEIGHT>
409.88864

> <PUBCHEM_MONOISOTOPIC_WEIGHT>
409.065175

> <PUBCHEM_OPENEYE_CAN_SMILES>
CC1=NN=C(N1C2=CC=CC=C2)SCC3=CC=C(O3)C(=O)C4=CC=C(C=C4)Cl

> <PUBCHEM_OPENEYE_ISO_SMILES>
CC1=NN=C(N1C2=CC=CC=C2)SCC3=CC=C(O3)C(=O)C4=CC=C(C=C4)Cl

> <PUBCHEM_TOTAL_CHARGE>
0

> <PUBCHEM_XLOGP3_AA>
5.2

$$$$
Largest isolated from Written by BCL::WriteToMDL,3238125
JMcorina  04211410293D 1   1.00000     0.00000 
CORINA 3.49 0026  01.06.2011
 38 38  0  0  0  0  0  0  0  0999 V2000
   -6.2171    2.2282    3.4096 Br  0  0  0  1  0  0  0  0  0  0  0  0
   -0.6170    1.5119    0.3571 S   0  0  0  1  0  0  0  0  0  0  0  0
   -3.2275    4.4268   -2.5508 O   0  0  0  1  0  0  0  0  0  0  0  0
   -0.3298    0.1202    0.3667 O   0  0  0  1  0  0  0  0  0  0  0  0
    0.2615    2.4905    0.8953 O   0  0  0  1  0  0  0  0  0  0  0  0
   -3.2470    2.2340   -2.2775 O   0  0  0  1  0  0  0  0  0  0  0  0
   -0.8657    1.9271   -1.2266 N   0  0  0  1  0  0  0  0  0  0  0  0
   -0.2834    3.8685   -2.5953 C   0  0  0  1  0  0  0  0  0  0  0  0
   -1.2646    3.2939   -1.5715 C   0  0  0  1  0  0  0  0  0  0  0  0
   -0.6144    5.3407   -2.8483 C   0  0  0  1  0  0  0  0  0  0  0  0
    1.1434    3.7521   -2.0553 C   0  0  0  1  0  0  0  0  0  0  0  0
   -2.6523    3.2791   -2.1591 C   0  0  0  1  0  0  0  0  0  0  0  0
   -2.1543    1.7084    1.1954 C   0  0  0  1  0  0  0  0  0  0  0  0
   -3.0405    0.6501    1.2709 C   0  0  0  1  0  0  0  0  0  0  0  0
   -2.4715    2.9192    1.7823 C   0  0  0  1  0  0  0  0  0  0  0  0
   -4.5655    4.3371   -3.1076 C   0  0  0  1  0  0  0  0  0  0  0  0
   -4.2467    0.8039    1.9280 C   0  0  0  1  0  0  0  0  0  0  0  0
   -3.6773    3.0739    2.4399 C   0  0  0  1  0  0  0  0  0  0  0  0
   -4.5669    2.0170    2.5105 C   0  0  0  1  0  0  0  0  0  0  0  0
   -5.0520    5.7353   -3.4939 C   0  0  0  1  0  0  0  0  0  0  0  0
   -0.3651    3.3120   -3.5289 H   0  0  0  1  0  0  0  0  0  0  0  0
   -1.2567    3.9122   -0.6739 H   0  0  0  1  0  0  0  0  0  0  0  0
   -0.7472    1.2654   -1.9258 H   0  0  0  1  0  0  0  0  0  0  0  0
   -0.5327    5.8972   -1.9147 H   0  0  0  1  0  0  0  0  0  0  0  0
    0.0846    5.7501   -3.5777 H   0  0  0  1  0  0  0  0  0  0  0  0
   -1.6309    5.4237   -3.2330 H   0  0  0  1  0  0  0  0  0  0  0  0
    1.3495    2.7141   -1.7943 H   0  0  0  1  0  0  0  0  0  0  0  0
    1.8486    4.0818   -2.8183 H   0  0  0  1  0  0  0  0  0  0  0  0
    1.2485    4.3775   -1.1688 H   0  0  0  1  0  0  0  0  0  0  0  0
   -2.7904   -0.2970    0.8161 H   0  0  0  1  0  0  0  0  0  0  0  0
   -1.7769    3.7444    1.7271 H   0  0  0  1  0  0  0  0  0  0  0  0
   -4.5489    3.7009   -3.9926 H   0  0  0  1  0  0  0  0  0  0  0  0
   -5.2400    3.9098   -2.3656 H   0  0  0  1  0  0  0  0  0  0  0  0
   -4.9392   -0.0227    1.9864 H   0  0  0  1  0  0  0  0  0  0  0  0
   -3.9252    4.0200    2.8981 H   0  0  0  1  0  0  0  0  0  0  0  0
   -6.0565    5.6679   -3.9119 H   0  0  0  1  0  0  0  0  0  0  0  0
   -5.0687    6.3715   -2.6089 H   0  0  0  1  0  0  0  0  0  0  0  0
   -4.3776    6.1626   -4.2359 H   0  0  0  1  0  0  0  0  0  0  0  0
  1 19  1  0  0  0  0
  2  4  2  0  0  0  0
  2  5  2  0  0  0  0
  2  7  1  0  0  0  0
  2 13  1  0  0  0  0
  3 12  1  0  0  0  0
  3 16  1  0  0  0  0
  6 12  2  0  0  0  0
  7  9  1  0  0  0  0
  7 23  1  0  0  0  0
  8  9  1  0  0  0  0
  8 10  1  0  0  0  0
  8 11  1  0  0  0  0
  8 21  1  0  0  0  0
  9 12  1  0  0  0  0
  9 22  1  0  0  0  0
 10 24  1  0  0  0  0
 10 25  1  0  0  0  0
 10 26  1  0  0  0  0
 11 27  1  0  0  0  0
 11 28  1  0  0  0  0
 11 29  1  0  0  0  0
 13 14  4  0  0  0  0
 13 15  4  0  0  0  0
 14 17  4  0  0  0  0
 14 30  1  0  0  0  0
 15 18  4  0  0  0  0
 15 31  1  0  0  0  0
 16 20  1  0  0  0  0
 16 32  1  0  0  0  0
 16 33  1  0  0  0  0
 17 19  4  0  0  0  0
 17 34  1  0  0  0  0
 18 19  4  0  0  0  0
 18 35  1  0  0  0  0
 20 36  1  0  0  0  0
 20 37  1  0  0  0  0
 20 38  1  0  0  0  0
M  END
> <Activity>
0.01

> <Mapped(file=2032.csv.activities,property=Cached(PUBCHEM_COMPOUND_CID))>
100

> <MatchIndices>
59 

> <PUBCHEM_ATOM_DEF_STEREO_COUNT>
0

> <PUBCHEM_ATOM_UDEF_STEREO_COUNT>
1

> <PUBCHEM_BONDANNOTATIONS>
13  14  8
13  15  8
14  17  8
15  18  8
17  19  8
18  19  8
9  8  3

> <PUBCHEM_BOND_DEF_STEREO_COUNT>
0

> <PUBCHEM_BOND_UDEF_STEREO_COUNT>
0

> <PUBCHEM_CACTVS_COMPLEXITY>
411

> <PUBCHEM_CACTVS_HBOND_ACCEPTOR>
5

> <PUBCHEM_CACTVS_HBOND_DONOR>
1

> <PUBCHEM_CACTVS_ROTATABLE_BOND>
7

> <PUBCHEM_CACTVS_SUBSKEYS>
AAADceByOABAEAAAAAAAAAAAAAAAAAAAAAAwAAAAAAAAAAABAAAAHgRQQAABrSjh0AYyCYBABAKIACDSCHBCABAgAAQIiJmAAKgKIDKAERCDIAAkkAAIihcAAAAIAAEAAAAAAAAAAgAAAAAAAAAAAAAAAA==

> <PUBCHEM_CACTVS_TAUTO_COUNT>
1

> <PUBCHEM_CACTVS_TPSA>
80.8

> <PUBCHEM_COMPONENT_COUNT>
1

> <PUBCHEM_COMPOUND_CANONICALIZED>
1

> <PUBCHEM_COMPOUND_CID>
3238125

> <PUBCHEM_COORDINATE_TYPE>
1
5
255

> <PUBCHEM_EXACT_MASS>
363.013991

> <PUBCHEM_HEAVY_ATOM_COUNT>
20

> <PUBCHEM_ISOTOPIC_ATOM_COUNT>
0

> <PUBCHEM_IUPAC_CAS_NAME>
2-[(4-bromophenyl)sulfonylamino]-3-methylbutanoic acid ethyl ester

> <PUBCHEM_IUPAC_INCHI>
InChI=1S/C13H18BrNO4S/c1-4-19-13(16)12(9(2)3)15-20(17,18)11-7-5-10(14)6-8-11/h5-9,12,15H,4H2,1-3H3

> <PUBCHEM_IUPAC_INCHIKEY>
ZOSZQGBQDQGLCB-UHFFFAOYSA-N

> <PUBCHEM_IUPAC_NAME>
ethyl 2-[(4-bromophenyl)sulfonylamino]-3-methylbutanoate

> <PUBCHEM_IUPAC_OPENEYE_NAME>
ethyl 2-[(4-bromophenyl)sulfonylamino]-3-methyl-butanoate

> <PUBCHEM_IUPAC_SYSTEMATIC_NAME>
ethyl 2-[(4-bromophenyl)sulfonylamino]-3-methyl-butanoate

> <PUBCHEM_IUPAC_TRADITIONAL_NAME>
2-(brosylamino)-3-methyl-butyric acid ethyl ester

> <PUBCHEM_MOLECULAR_FORMULA>
C13H18BrNO4S

> <PUBCHEM_MOLECULAR_WEIGHT>
364.25532

> <PUBCHEM_MONOISOTOPIC_WEIGHT>
363.013991

> <PUBCHEM_OPENEYE_CAN_SMILES>
CCOC(=O)C(C(C)C)NS(=O)(=O)C1=CC=C(C=C1)Br

> <PUBCHEM_OPENEYE_ISO_SMILES>
CCOC(=O)C(C(C)C)NS(=O)(=O)C1=CC=C(C=C1)Br

> <PUBCHEM_TOTAL_CHARGE>
0

> <PUBCHEM_XLOGP3_AA>
3.2

$$$$
Largest isolated from Written by BCL::WriteToMDL,20937322
JMcorina  04211410293D 1   1.00000     0.00000 
CORINA 3.49 0026  01.06.2011
 40 41  0  0  0  0  0  0  0  0999 V2000
   -0.0172    1.4168    0.0098 S   0  0  0  1  0  0  0  0  0  0  0  0
   -1.8005    3.2404    3.3797 S   0  0  0  1  0  0  0  0  0  0  0  0
    0.0021   -0.0041    0.0020 O   0  0  0  1  0  0  0  0  0  0  0  0
    1.1617    2.2101    0.0028 O   0  0  0  1  0  0  0  0  0  0  0  0
   -3.7745    0.6988   -0.2297 O   0  0  0  1  0  0  0  0  0  0  0  0
   -3.8412   -0.1485    3.7056 O   0  0  0  1  0  0  0  0  0  0  0  0
   -0.9002    1.8797   -1.3124 N   0  0  0  1  0  0  0  0  0  0  0  0
   -3.9815    1.6328    5.0267 N   0  0  0  1  0  0  0  0  0  0  0  0
   -0.7022    3.2084   -1.8968 C   0  0  0  1  0  0  0  0  0  0  0  0
    0.2961    3.1137   -3.0524 C   0  0  0  1  0  0  0  0  0  0  0  0
   -1.8794    0.9606   -1.8977 C   0  0  0  1  0  0  0  0  0  0  0  0
    0.5029    4.5013   -3.6628 C   0  0  0  1  0  0  0  0  0  0  0  0
   -0.9297    1.8941    1.4396 C   0  0  0  1  0  0  0  0  0  0  0  0
   -3.2449    1.2544   -1.3318 C   0  0  0  1  0  0  0  0  0  0  0  0
    1.5012    4.4065   -4.8184 C   0  0  0  1  0  0  0  0  0  0  0  0
   -1.8499    1.0663    2.0377 C   0  0  0  1  0  0  0  0  0  0  0  0
   -0.7772    3.0888    2.0228 C   0  0  0  1  0  0  0  0  0  0  0  0
   -4.1402    2.1171   -1.8451 C   0  0  0  1  0  0  0  0  0  0  0  0
   -2.4473    1.6242    3.1328 C   0  0  0  1  0  0  0  0  0  0  0  0
   -5.2753    2.0789   -1.0030 C   0  0  0  1  0  0  0  0  0  0  0  0
   -5.0057    1.1951   -0.0254 C   0  0  0  1  0  0  0  0  0  0  0  0
   -3.4642    0.9785    3.9681 C   0  0  0  1  0  0  0  0  0  0  0  0
   -1.6540    3.5872   -2.2691 H   0  0  0  1  0  0  0  0  0  0  0  0
   -0.3141    3.8858   -1.1361 H   0  0  0  1  0  0  0  0  0  0  0  0
    1.2480    2.7349   -2.6801 H   0  0  0  1  0  0  0  0  0  0  0  0
   -0.0920    2.4363   -3.8131 H   0  0  0  1  0  0  0  0  0  0  0  0
   -1.8988    1.0911   -2.9797 H   0  0  0  1  0  0  0  0  0  0  0  0
   -1.6010   -0.0662   -1.6604 H   0  0  0  1  0  0  0  0  0  0  0  0
   -0.4489    4.8800   -4.0351 H   0  0  0  1  0  0  0  0  0  0  0  0
    0.8910    5.1787   -2.9021 H   0  0  0  1  0  0  0  0  0  0  0  0
    2.4531    4.0278   -4.4461 H   0  0  0  1  0  0  0  0  0  0  0  0
    1.1131    3.7291   -5.5791 H   0  0  0  1  0  0  0  0  0  0  0  0
    1.6485    5.3951   -5.2532 H   0  0  0  1  0  0  0  0  0  0  0  0
   -2.0779    0.0738    1.6780 H   0  0  0  1  0  0  0  0  0  0  0  0
   -0.0975    3.8550    1.6802 H   0  0  0  1  0  0  0  0  0  0  0  0
   -4.0157    2.7232   -2.7303 H   0  0  0  1  0  0  0  0  0  0  0  0
   -6.1842    2.6500   -1.1216 H   0  0  0  1  0  0  0  0  0  0  0  0
   -5.6671    0.9296    0.7860 H   0  0  0  1  0  0  0  0  0  0  0  0
   -4.6544    1.2055    5.5794 H   0  0  0  1  0  0  0  0  0  0  0  0
   -3.6809    2.5310    5.2358 H   0  0  0  1  0  0  0  0  0  0  0  0
  1  3  2  0  0  0  0
  1  4  2  0  0  0  0
  1  7  1  0  0  0  0
  1 13  1  0  0  0  0
  2 17  4  0  0  0  0
  2 19  4  0  0  0  0
  5 14  4  0  0  0  0
  5 21  4  0  0  0  0
  6 22  2  0  0  0  0
  7  9  1  0  0  0  0
  7 11  1  0  0  0  0
  8 22  1  0  0  0  0
  8 39  1  0  0  0  0
  8 40  1  0  0  0  0
  9 10  1  0  0  0  0
  9 23  1  0  0  0  0
  9 24  1  0  0  0  0
 10 12  1  0  0  0  0
 10 25  1  0  0  0  0
 10 26  1  0  0  0  0
 11 14  1  0  0  0  0
 11 27  1  0  0  0  0
 11 28  1  0  0  0  0
 12 15  1  0  0  0  0
 12 29  1  0  0  0  0
 12 30  1  0  0  0  0
 13 16  4  0  0  0  0
 13 17  4  0  0  0  0
 14 18  4  0  0  0  0
 15 31  1  0  0  0  0
 15 32  1  0  0  0  0
 15 33  1  0  0  0  0
 16 19  4  0  0  0  0
 16 34  1  0  0  0  0
 17 35  1  0  0  0  0
 18 20  4  0  0  0  0
 18 36  1  0  0  0  0
 19 22  1  0  0  0  0
 20 21  4  0  0  0  0
 20 37  1  0  0  0  0
 21 38  1  0  0  0  0
M  END
> <Activity>
0.01

> <Mapped(file=2032.csv.activities,property=Cached(PUBCHEM_COMPOUND_CID))>
100

> <MatchIndices>
64 

> <PUBCHEM_ATOM_DEF_STEREO_COUNT>
0

> <PUBCHEM_ATOM_UDEF_STEREO_COUNT>
0

> <PUBCHEM_BONDANNOTATIONS>
13  16  8
13  17  8
14  18  8
16  19  8
18  20  8
2  17  8
2  19  8
20  21  8
5  14  8
5  21  8

> <PUBCHEM_BOND_DEF_STEREO_COUNT>
0

> <PUBCHEM_BOND_UDEF_STEREO_COUNT>
0

> <PUBCHEM_CACTVS_COMPLEXITY>
478

> <PUBCHEM_CACTVS_HBOND_ACCEPTOR>
6

> <PUBCHEM_CACTVS_HBOND_DONOR>
1

> <PUBCHEM_CACTVS_ROTATABLE_BOND>
8

> <PUBCHEM_CACTVS_SUBSKEYS>
AAADceBzOABgAAAAAAAAAAAAAAAAASJAAAAAAAAAAAAAAAAB4AAAHgQQQAAACATl0AayBYJABEqMAKlSkHDDCJAkKBBIiBmODMgOJjKktTuHGSjkwBG4qYaYEQIAAAAAAAAAAAAAAAAAAAAAAAAAAAAAAA==

> <PUBCHEM_CACTVS_TAUTO_COUNT>
2

> <PUBCHEM_CACTVS_TPSA>
130

> <PUBCHEM_COMPONENT_COUNT>
1

> <PUBCHEM_COMPOUND_CANONICALIZED>
1

> <PUBCHEM_COMPOUND_CID>
20937322

> <PUBCHEM_COORDINATE_TYPE>
1
5
255

> <PUBCHEM_EXACT_MASS>
342.070799

> <PUBCHEM_HEAVY_ATOM_COUNT>
22

> <PUBCHEM_ISOTOPIC_ATOM_COUNT>
0

> <PUBCHEM_IUPAC_CAS_NAME>
4-[butyl(2-furanylmethyl)sulfamoyl]-2-thiophenecarboxamide

> <PUBCHEM_IUPAC_INCHI>
InChI=1S/C14H18N2O4S2/c1-2-3-6-16(9-11-5-4-7-20-11)22(18,19)12-8-13(14(15)17)21-10-12/h4-5,7-8,10H,2-3,6,9H2,1H3,(H2,15,17)

> <PUBCHEM_IUPAC_INCHIKEY>
WEQZEFUVRWXUQT-UHFFFAOYSA-N

> <PUBCHEM_IUPAC_NAME>
4-[butyl(furan-2-ylmethyl)sulfamoyl]thiophene-2-carboxamide

> <PUBCHEM_IUPAC_OPENEYE_NAME>
4-[butyl(2-furylmethyl)sulfamoyl]thiophene-2-carboxamide

> <PUBCHEM_IUPAC_SYSTEMATIC_NAME>
4-[butyl(furan-2-ylmethyl)sulfamoyl]thiophene-2-carboxamide

> <PUBCHEM_IUPAC_TRADITIONAL_NAME>
4-[butyl(2-furfuryl)sulfamoyl]thiophene-2-carboxamide

> <PUBCHEM_MOLECULAR_FORMULA>
C14H18N2O4S2

> <PUBCHEM_MOLECULAR_WEIGHT>
342.43372

> <PUBCHEM_MONOISOTOPIC_WEIGHT>
342.070799

> <PUBCHEM_OPENEYE_CAN_SMILES>
CCCCN(CC1=CC=CO1)S(=O)(=O)C2=CSC(=C2)C(=O)N

> <PUBCHEM_OPENEYE_ISO_SMILES>
CCCCN(CC1=CC=CO1)S(=O)(=O)C2=CSC(=C2)C(=O)N

> <PUBCHEM_TOTAL_CHARGE>
0

> <PUBCHEM_XLOGP3_AA>
1.8

$$$$
Largest isolated from Written by BCL::WriteToMDL,2987440
JMcorina  04211410293D 1   1.00000     0.00000 
CORINA 3.49 0026  01.06.2011
 38 41  0  0  0  0  0  0  0  0999 V2000
   -0.0164    1.3562    0.0095 N   0  0  0  1  0  0  0  0  0  0  0  0
    1.2298   -0.4347   -0.0120 N   0  0  0  1  0  0  0  0  0  0  0  0
   -1.2213   -0.8840    0.0094 C   0  0  0  1  0  0  0  0  0  0  0  0
   -1.4103   -1.8411   -1.1692 C   0  0  0  1  0  0  0  0  0  0  0  0
   -1.0094   -2.3869    0.2027 C   0  0  0  1  0  0  0  0  0  0  0  0
    0.0021   -0.0041    0.0020 C   0  0  0  1  0  0  0  0  0  0  0  0
    1.2960    1.7847   -0.0007 C   0  0  0  1  0  0  0  0  0  0  0  0
   -1.2080    2.2083    0.0200 C   0  0  0  1  0  0  0  0  0  0  0  0
    2.0838    0.6210   -0.0145 C   0  0  0  1  0  0  0  0  0  0  0  0
   -1.6157    2.4972    1.4662 C   0  0  0  1  0  0  0  0  0  0  0  0
    1.9058    3.0315    0.0001 C   0  0  0  1  0  0  0  0  0  0  0  0
    3.4762    0.7338   -0.0279 C   0  0  0  1  0  0  0  0  0  0  0  0
   -2.8414    3.3737    1.4770 C   0  0  0  1  0  0  0  0  0  0  0  0
    3.2820    3.1186   -0.0125 C   0  0  0  1  0  0  0  0  0  0  0  0
    4.0592    1.9696   -0.0275 C   0  0  0  1  0  0  0  0  0  0  0  0
   -4.1000    2.8020    1.4801 C   0  0  0  1  0  0  0  0  0  0  0  0
   -2.7072    4.7495    1.4895 C   0  0  0  1  0  0  0  0  0  0  0  0
   -5.2244    3.6061    1.4900 C   0  0  0  1  0  0  0  0  0  0  0  0
   -3.8316    5.5536    1.4994 C   0  0  0  1  0  0  0  0  0  0  0  0
   -5.0902    4.9819    1.4972 C   0  0  0  1  0  0  0  0  0  0  0  0
   -2.1163   -0.4416    0.4470 H   0  0  0  1  0  0  0  0  0  0  0  0
   -2.4295   -2.0283   -1.5071 H   0  0  0  1  0  0  0  0  0  0  0  0
   -0.6497   -1.8343   -1.9500 H   0  0  0  1  0  0  0  0  0  0  0  0
    0.0149   -2.7392    0.3245 H   0  0  0  1  0  0  0  0  0  0  0  0
   -1.7649   -2.9332    0.7674 H   0  0  0  1  0  0  0  0  0  0  0  0
   -0.9884    3.1464   -0.4898 H   0  0  0  1  0  0  0  0  0  0  0  0
   -2.0238    1.6986   -0.4925 H   0  0  0  1  0  0  0  0  0  0  0  0
   -1.8353    1.5591    1.9760 H   0  0  0  1  0  0  0  0  0  0  0  0
   -0.7999    3.0069    1.9787 H   0  0  0  1  0  0  0  0  0  0  0  0
    1.3054    3.9291    0.0103 H   0  0  0  1  0  0  0  0  0  0  0  0
    4.0908   -0.1543   -0.0382 H   0  0  0  1  0  0  0  0  0  0  0  0
    3.7580    4.0881   -0.0119 H   0  0  0  1  0  0  0  0  0  0  0  0
    5.1359    2.0526   -0.0375 H   0  0  0  1  0  0  0  0  0  0  0  0
   -4.2049    1.7271    1.4745 H   0  0  0  1  0  0  0  0  0  0  0  0
   -1.7239    5.1961    1.4919 H   0  0  0  1  0  0  0  0  0  0  0  0
   -6.2077    3.1594    1.4917 H   0  0  0  1  0  0  0  0  0  0  0  0
   -3.7267    6.6284    1.5096 H   0  0  0  1  0  0  0  0  0  0  0  0
   -5.9687    5.6101    1.5046 H   0  0  0  1  0  0  0  0  0  0  0  0
  1  6  4  0  0  0  0
  1  7  4  0  0  0  0
  1  8  1  0  0  0  0
  2  6  4  0  0  0  0
  2  9  4  0  0  0  0
  3  4  1  0  0  0  0
  3  5  1  0  0  0  0
  3  6  1  0  0  0  0
  3 21  1  0  0  0  0
  4  5  1  0  0  0  0
  4 22  1  0  0  0  0
  4 23  1  0  0  0  0
  5 24  1  0  0  0  0
  5 25  1  0  0  0  0
  7  9  4  0  0  0  0
  7 11  4  0  0  0  0
  8 10  1  0  0  0  0
  8 26  1  0  0  0  0
  8 27  1  0  0  0  0
  9 12  4  0  0  0  0
 10 13  1  0  0  0  0
 10 28  1  0  0  0  0
 10 29  1  0  0  0  0
 11 14  4  0  0  0  0
 11 30  1  0  0  0  0
 12 15  4  0  0  0  0
 12 31  1  0  0  0  0
 13 16  4  0  0  0  0
 13 17  4  0  0  0  0
 14 15  4  0  0  0  0
 14 32  1  0  0  0  0
 15 33  1  0  0  0  0
 16 18  4  0  0  0  0
 16 34  1  0  0  0  0
 17 19  4  0  0  0  0
 17 35  1  0  0  0  0
 18 20  4  0  0  0  0
 18 36  1  0  0  0  0
 19 20  4  0  0  0  0
 19 37  1  0  0  0  0
 20 38  1  0  0  0  0
M  END
> <Activity>
0.01

> <Mapped(file=2032.csv.activities,property=Cached(PUBCHEM_COMPOUND_CID))>
100

> <MatchIndices>
71 

> <PUBCHEM_ATOM_DEF_STEREO_COUNT>
0

> <PUBCHEM_ATOM_UDEF_STEREO_COUNT>
0

> <PUBCHEM_BONDANNOTATIONS>
1  6  8
1  7  8
11  14  8
12  15  8
13  16  8
13  17  8
14  15  8
16  18  8
17  19  8
18  20  8
19  20  8
2  6  8
2  9  8
7  11  8
7  9  8
9  12  8

> <PUBCHEM_BOND_DEF_STEREO_COUNT>
0

> <PUBCHEM_BOND_UDEF_STEREO_COUNT>
0

> <PUBCHEM_CACTVS_COMPLEXITY>
319

> <PUBCHEM_CACTVS_HBOND_ACCEPTOR>
0

> <PUBCHEM_CACTVS_HBOND_DONOR>
0

> <PUBCHEM_CACTVS_ROTATABLE_BOND>
4

> <PUBCHEM_CACTVS_SUBSKEYS>
AAADceB7AAAAAAAAAAAAAAAAGAAAAWAAAAAwYAAAAAAAAFgB9AAAHAAAAAAADQjBHwQx0LcMEACgAyZiZACCgC0hEqAJ2CA4dJiIaKLAmZGUIAhogALIyCcQgIAOAAAAAAAAACAAAAAAAAAAQAAAAAAAAA==

> <PUBCHEM_CACTVS_TAUTO_COUNT>
1

> <PUBCHEM_CACTVS_TPSA>
17.8

> <PUBCHEM_COMPONENT_COUNT>
1

> <PUBCHEM_COMPOUND_CANONICALIZED>
1

> <PUBCHEM_COMPOUND_CID>
2987440

> <PUBCHEM_COORDINATE_TYPE>
1
5
255

> <PUBCHEM_EXACT_MASS>
262.146999

> <PUBCHEM_HEAVY_ATOM_COUNT>
20

> <PUBCHEM_ISOTOPIC_ATOM_COUNT>
0

> <PUBCHEM_IUPAC_CAS_NAME>
2-cyclopropyl-1-(2-phenylethyl)benzimidazole

> <PUBCHEM_IUPAC_INCHI>
InChI=1S/C18H18N2/c1-2-6-14(7-3-1)12-13-20-17-9-5-4-8-16(17)19-18(20)15-10-11-15/h1-9,15H,10-13H2

> <PUBCHEM_IUPAC_INCHIKEY>
ODBCNXRWJIPLEA-UHFFFAOYSA-N

> <PUBCHEM_IUPAC_NAME>
2-cyclopropyl-1-(2-phenylethyl)benzimidazole

> <PUBCHEM_IUPAC_OPENEYE_NAME>
2-cyclopropyl-1-(2-phenylethyl)benzimidazole

> <PUBCHEM_IUPAC_SYSTEMATIC_NAME>
2-cyclopropyl-1-(2-phenylethyl)benzimidazole

> <PUBCHEM_IUPAC_TRADITIONAL_NAME>
2-cyclopropyl-1-phenethyl-benzimidazole

> <PUBCHEM_MOLECULAR_FORMULA>
C18H18N2

> <PUBCHEM_MOLECULAR_WEIGHT>
262.34892

> <PUBCHEM_MONOISOTOPIC_WEIGHT>
262.146999

> <PUBCHEM_OPENEYE_CAN_SMILES>
C1CC1C2=NC3=CC=CC=C3N2CCC4=CC=CC=C4

> <PUBCHEM_OPENEYE_ISO_SMILES>
C1CC1C2=NC3=CC=CC=C3N2CCC4=CC=CC=C4

> <PUBCHEM_TOTAL_CHARGE>
0

> <PUBCHEM_XLOGP3_AA>
3.9

$$$$
Largest isolated from Written by BCL::WriteToMDL,2831789
JMcorina  04211410293D 1   1.00000     0.00000 
CORINA 3.49 0026  01.06.2011
 37 39  0  0  0  0  0  0  0  0999 V2000
    7.6313    4.4176    0.0132 Br  0  0  0  1  0  0  0  0  0  0  0  0
   -0.0180    1.4740    0.0101 N   0  0  0  1  0  0  0  0  0  0  0  0
    1.7743    3.1225    0.3240 N   0  0  0  1  0  0  0  0  0  0  0  0
    4.3893    0.1499   -0.9438 N   0  0  0  1  0  0  0  0  0  0  0  0
    0.0021   -0.0041    0.0020 C   0  0  0  1  0  0  0  0  0  0  0  0
    1.3381   -0.3224   -0.7081 C   0  0  0  1  0  0  0  0  0  0  0  0
    2.1670    0.9138   -0.4242 C   0  0  0  1  0  0  0  0  0  0  0  0
    1.3001    1.9269   -0.0000 C   0  0  0  1  0  0  0  0  0  0  0  0
   -0.7409    1.9842    1.1827 C   0  0  0  1  0  0  0  0  0  0  0  0
   -0.9578    3.4912    1.0321 C   0  0  0  1  0  0  0  0  0  0  0  0
    3.5221    1.1460   -0.5195 C   0  0  0  1  0  0  0  0  0  0  0  0
    4.0035    2.4332   -0.1705 C   0  0  0  1  0  0  0  0  0  0  0  0
    3.0775    3.4135    0.2561 C   0  0  0  1  0  0  0  0  0  0  0  0
   -1.7108    4.0227    2.2534 C   0  0  0  1  0  0  0  0  0  0  0  0
    5.3667    2.7457   -0.2398 C   0  0  0  1  0  0  0  0  0  0  0  0
    3.5505    4.6904    0.6050 C   0  0  0  1  0  0  0  0  0  0  0  0
   -1.9277    5.5297    2.1028 C   0  0  0  1  0  0  0  0  0  0  0  0
    5.7904    3.9952    0.1064 C   0  0  0  1  0  0  0  0  0  0  0  0
    4.8820    4.9639    0.5266 C   0  0  0  1  0  0  0  0  0  0  0  0
    0.0021   -0.3961    1.0191 H   0  0  0  1  0  0  0  0  0  0  0  0
   -0.8407   -0.3988   -0.5654 H   0  0  0  1  0  0  0  0  0  0  0  0
    1.8041   -1.2081   -0.2762 H   0  0  0  1  0  0  0  0  0  0  0  0
    1.1858   -0.4482   -1.7801 H   0  0  0  1  0  0  0  0  0  0  0  0
   -1.7064    1.4841    1.2603 H   0  0  0  1  0  0  0  0  0  0  0  0
   -0.1575    1.7892    2.0825 H   0  0  0  1  0  0  0  0  0  0  0  0
    0.0076    3.9913    0.9546 H   0  0  0  1  0  0  0  0  0  0  0  0
   -1.5413    3.6862    0.1323 H   0  0  0  1  0  0  0  0  0  0  0  0
   -2.6762    3.5226    2.3309 H   0  0  0  1  0  0  0  0  0  0  0  0
   -1.1273    3.8277    3.1532 H   0  0  0  1  0  0  0  0  0  0  0  0
    6.0786    2.0016   -0.5652 H   0  0  0  1  0  0  0  0  0  0  0  0
    4.0444   -0.7257   -1.1788 H   0  0  0  1  0  0  0  0  0  0  0  0
    5.3406    0.3290   -1.0056 H   0  0  0  1  0  0  0  0  0  0  0  0
    2.8596    5.4526    0.9341 H   0  0  0  1  0  0  0  0  0  0  0  0
   -2.4642    5.9083    2.9729 H   0  0  0  1  0  0  0  0  0  0  0  0
   -0.9623    6.0298    2.0253 H   0  0  0  1  0  0  0  0  0  0  0  0
   -2.5112    5.7247    1.2030 H   0  0  0  1  0  0  0  0  0  0  0  0
    5.2395    5.9467    0.7959 H   0  0  0  1  0  0  0  0  0  0  0  0
  1 18  1  0  0  0  0
  2  5  1  0  0  0  0
  2  8  1  0  0  0  0
  2  9  1  0  0  0  0
  3  8  4  0  0  0  0
  3 13  4  0  0  0  0
  4 11  1  0  0  0  0
  4 31  1  0  0  0  0
  4 32  1  0  0  0  0
  5  6  1  0  0  0  0
  5 20  1  0  0  0  0
  5 21  1  0  0  0  0
  6  7  1  0  0  0  0
  6 22  1  0  0  0  0
  6 23  1  0  0  0  0
  7  8  4  0  0  0  0
  7 11  4  0  0  0  0
  9 10  1  0  0  0  0
  9 24  1  0  0  0  0
  9 25  1  0  0  0  0
 10 14  1  0  0  0  0
 10 26  1  0  0  0  0
 10 27  1  0  0  0  0
 11 12  4  0  0  0  0
 12 13  4  0  0  0  0
 12 15  4  0  0  0  0
 13 16  4  0  0  0  0
 14 17  1  0  0  0  0
 14 28  1  0  0  0  0
 14 29  1  0  0  0  0
 15 18  4  0  0  0  0
 15 30  1  0  0  0  0
 16 19  4  0  0  0  0
 16 33  1  0  0  0  0
 17 34  1  0  0  0  0
 17 35  1  0  0  0  0
 17 36  1  0  0  0  0
 18 19  4  0  0  0  0
 19 37  1  0  0  0  0
M  END
> <Activity>
0.01

> <Mapped(file=2032.csv.activities,property=Cached(PUBCHEM_COMPOUND_CID))>
100

> <MatchIndices>
178 

> <PUBCHEM_ATOM_DEF_STEREO_COUNT>
0

> <PUBCHEM_ATOM_UDEF_STEREO_COUNT>
0

> <PUBCHEM_BONDANNOTATIONS>
12  13  8
13  14  8
13  16  8
14  17  8
16  19  8
17  20  8
19  20  8
4  14  8
4  9  8
8  12  8
8  9  8

> <PUBCHEM_BOND_DEF_STEREO_COUNT>
0

> <PUBCHEM_BOND_UDEF_STEREO_COUNT>
0

> <PUBCHEM_CACTVS_COMPLEXITY>
312

> <PUBCHEM_CACTVS_HBOND_ACCEPTOR>
2

> <PUBCHEM_CACTVS_HBOND_DONOR>
2

> <PUBCHEM_CACTVS_ROTATABLE_BOND>
3

> <PUBCHEM_CACTVS_SUBSKEYS>
AAADceBzAAAEEAAAAAAAAAAAAAAAAWAAAAA8QAAAAAAAAFix8AAAHABQAAABrAjBHgQz8PNIEACgAyZiZACCgCkhAiQJmCA4ZLiIIOLA2dGEJAhogALIyjcQgMAOAAAgEAACAAAAAEAgAAQAAAAAAAAAAA==

> <PUBCHEM_CACTVS_TAUTO_COUNT>
3

> <PUBCHEM_CACTVS_TPSA>
42.2

> <PUBCHEM_COMPONENT_COUNT>
2

> <PUBCHEM_COMPOUND_CANONICALIZED>
1

> <PUBCHEM_COMPOUND_CID>
2831789

> <PUBCHEM_COORDINATE_TYPE>
1
5
255

> <PUBCHEM_EXACT_MASS>
355.045087

> <PUBCHEM_HEAVY_ATOM_COUNT>
20

> <PUBCHEM_ISOTOPIC_ATOM_COUNT>
0

> <PUBCHEM_IUPAC_CAS_NAME>
6-bromo-1-butyl-2,3-dihydropyrrolo[2,3-b]quinolin-4-amine hydrochloride

> <PUBCHEM_IUPAC_INCHI>
InChI=1S/C15H18BrN3.ClH/c1-2-3-7-19-8-6-11-14(17)12-9-10(16)4-5-13(12)18-15(11)19;/h4-5,9H,2-3,6-8H2,1H3,(H2,17,18);1H

> <PUBCHEM_IUPAC_INCHIKEY>
ROSLWENMJSYYGU-UHFFFAOYSA-N

> <PUBCHEM_IUPAC_NAME>
6-bromo-1-butyl-2,3-dihydropyrrolo[2,3-b]quinolin-4-amine hydrochloride

> <PUBCHEM_IUPAC_OPENEYE_NAME>
6-bromo-1-butyl-2,3-dihydropyrrolo[2,3-b]quinolin-4-amine hydrochloride

> <PUBCHEM_IUPAC_SYSTEMATIC_NAME>
6-bromanyl-1-butyl-2,3-dihydropyrrolo[2,3-b]quinolin-4-amine hydrochloride

> <PUBCHEM_IUPAC_TRADITIONAL_NAME>
(6-bromo-1-butyl-2,3-dihydropyrrolo[2,3-b]quinolin-4-yl)amine hydrochloride

> <PUBCHEM_MOLECULAR_FORMULA>
C15H19BrClN3

> <PUBCHEM_MOLECULAR_WEIGHT>
356.68846

> <PUBCHEM_MONOISOTOPIC_WEIGHT>
355.045087

> <PUBCHEM_OPENEYE_CAN_SMILES>
CCCCN1CCC2=C(C3=C(C=CC(=C3)Br)N=C21)N.Cl

> <PUBCHEM_OPENEYE_ISO_SMILES>
CCCCN1CCC2=C(C3=C(C=CC(=C3)Br)N=C21)N.Cl

> <PUBCHEM_TOTAL_CHARGE>
0

$$$$
Largest isolated from Written by BCL::WriteToMDL,666977
JMcorina  04211410293D 1   1.00000     0.00000 
CORINA 3.49 0026  01.06.2011
 52 55  0  0  0  0  0  0  0  0999 V2000
   -3.1286    2.6489    5.2793 O   0  0  0  1  0  0  0  0  0  0  0  0
   -0.4358    1.4987   -0.2264 N   0  0  0  1  0  0  0  0  0  0  0  0
    1.2898   -0.0466   -1.8816 N   0  0  0  1  0  0  0  0  0  0  0  0
   -0.8514    3.2557    1.2450 N   0  0  0  1  0  0  0  0  0  0  0  0
   -1.4798    1.0918    1.8161 N   0  0  0  1  0  0  0  0  0  0  0  0
   -0.6161    0.0453   -0.3478 C   0  0  0  1  0  0  0  0  0  0  0  0
    0.9781    1.8662   -0.3857 C   0  0  0  1  0  0  0  0  0  0  0  0
   -0.1241   -0.4141   -1.7223 C   0  0  0  1  0  0  0  0  0  0  0  0
    1.4701    1.4068   -1.7602 C   0  0  0  1  0  0  0  0  0  0  0  0
   -2.2389    5.6468    3.7101 C   0  0  0  1  0  0  0  0  0  0  0  0
   -1.2081    5.2106    2.6716 C   0  0  0  1  0  0  0  0  0  0  0  0
   -2.1014    4.7754    4.9655 C   0  0  0  1  0  0  0  0  0  0  0  0
   -1.3178    3.7401    2.3830 C   0  0  0  1  0  0  0  0  0  0  0  0
   -1.9028    2.8553    3.2956 C   0  0  0  1  0  0  0  0  0  0  0  0
   -0.9339    1.9597    0.9731 C   0  0  0  1  0  0  0  0  0  0  0  0
    1.8206   -0.5380   -3.1601 C   0  0  0  1  0  0  0  0  0  0  0  0
   -2.4401    3.3520    4.5701 C   0  0  0  1  0  0  0  0  0  0  0  0
   -2.0025    7.1128    4.0787 C   0  0  0  1  0  0  0  0  0  0  0  0
   -1.9703    1.4932    2.9745 C   0  0  0  1  0  0  0  0  0  0  0  0
    3.3172   -0.3625   -3.1834 C   0  0  0  1  0  0  0  0  0  0  0  0
   -2.5901    0.5071    3.9308 C   0  0  0  1  0  0  0  0  0  0  0  0
    4.1388   -1.3725   -2.7188 C   0  0  0  1  0  0  0  0  0  0  0  0
    3.8685    0.8061   -3.6745 C   0  0  0  1  0  0  0  0  0  0  0  0
    5.5116   -1.2115   -2.7401 C   0  0  0  1  0  0  0  0  0  0  0  0
    5.2413    0.9671   -3.6958 C   0  0  0  1  0  0  0  0  0  0  0  0
    6.0628   -0.0408   -3.2264 C   0  0  0  1  0  0  0  0  0  0  0  0
    1.0840    2.9480   -0.3044 H   0  0  0  1  0  0  0  0  0  0  0  0
    1.5692    1.3831    0.3923 H   0  0  0  1  0  0  0  0  0  0  0  0
   -0.0431   -0.4585    0.4306 H   0  0  0  1  0  0  0  0  0  0  0  0
   -1.6725   -0.2005   -0.2388 H   0  0  0  1  0  0  0  0  0  0  0  0
   -0.7153    0.0690   -2.5003 H   0  0  0  1  0  0  0  0  0  0  0  0
   -0.2301   -1.4959   -1.8036 H   0  0  0  1  0  0  0  0  0  0  0  0
    2.5264    1.6525   -1.8692 H   0  0  0  1  0  0  0  0  0  0  0  0
    0.8970    1.9106   -2.5387 H   0  0  0  1  0  0  0  0  0  0  0  0
   -3.2412    5.5332    3.2970 H   0  0  0  1  0  0  0  0  0  0  0  0
   -1.3713    5.7688    1.7498 H   0  0  0  1  0  0  0  0  0  0  0  0
   -0.2082    5.4275    3.0475 H   0  0  0  1  0  0  0  0  0  0  0  0
   -1.0785    4.8227    5.3388 H   0  0  0  1  0  0  0  0  0  0  0  0
   -2.7932    5.1209    5.7336 H   0  0  0  1  0  0  0  0  0  0  0  0
    1.5769   -1.5944   -3.2728 H   0  0  0  1  0  0  0  0  0  0  0  0
    1.3758    0.0268   -3.9794 H   0  0  0  1  0  0  0  0  0  0  0  0
   -2.1006    7.7320    3.1870 H   0  0  0  1  0  0  0  0  0  0  0  0
   -2.7383    7.4242    4.8201 H   0  0  0  1  0  0  0  0  0  0  0  0
   -1.0001    7.2265    4.4916 H   0  0  0  1  0  0  0  0  0  0  0  0
   -1.8521    0.2110    4.6764 H   0  0  0  1  0  0  0  0  0  0  0  0
   -3.4430    0.9696    4.4275 H   0  0  0  1  0  0  0  0  0  0  0  0
   -2.9234   -0.3726    3.3802 H   0  0  0  1  0  0  0  0  0  0  0  0
    3.7082   -2.2872   -2.3389 H   0  0  0  1  0  0  0  0  0  0  0  0
    3.2268    1.5932   -4.0419 H   0  0  0  1  0  0  0  0  0  0  0  0
    6.1535   -2.0003   -2.3764 H   0  0  0  1  0  0  0  0  0  0  0  0
    5.6721    1.8800   -4.0799 H   0  0  0  1  0  0  0  0  0  0  0  0
    7.1353    0.0852   -3.2427 H   0  0  0  1  0  0  0  0  0  0  0  0
  1 17  2  0  0  0  0
  2  6  1  0  0  0  0
  2  7  1  0  0  0  0
  2 15  1  0  0  0  0
  3  8  1  0  0  0  0
  3  9  1  0  0  0  0
  3 16  1  0  0  0  0
  4 13  4  0  0  0  0
  4 15  4  0  0  0  0
  5 15  4  0  0  0  0
  5 19  4  0  0  0  0
  6  8  1  0  0  0  0
  6 29  1  0  0  0  0
  6 30  1  0  0  0  0
  7  9  1  0  0  0  0
  7 27  1  0  0  0  0
  7 28  1  0  0  0  0
  8 31  1  0  0  0  0
  8 32  1  0  0  0  0
  9 33  1  0  0  0  0
  9 34  1  0  0  0  0
 10 11  1  0  0  0  0
 10 12  1  0  0  0  0
 10 18  1  0  0  0  0
 10 35  1  0  0  0  0
 11 13  1  0  0  0  0
 11 36  1  0  0  0  0
 11 37  1  0  0  0  0
 12 17  1  0  0  0  0
 12 38  1  0  0  0  0
 12 39  1  0  0  0  0
 13 14  4  0  0  0  0
 14 17  1  0  0  0  0
 14 19  4  0  0  0  0
 16 20  1  0  0  0  0
 16 40  1  0  0  0  0
 16 41  1  0  0  0  0
 18 42  1  0  0  0  0
 18 43  1  0  0  0  0
 18 44  1  0  0  0  0
 19 21  1  0  0  0  0
 20 22  4  0  0  0  0
 20 23  4  0  0  0  0
 21 45  1  0  0  0  0
 21 46  1  0  0  0  0
 21 47  1  0  0  0  0
 22 24  4  0  0  0  0
 22 48  1  0  0  0  0
 23 25  4  0  0  0  0
 23 49  1  0  0  0  0
 24 26  4  0  0  0  0
 24 50  1  0  0  0  0
 25 26  4  0  0  0  0
 25 51  1  0  0  0  0
 26 52  1  0  0  0  0
M  END
> <Activity>
0.01

> <Mapped(file=2032.csv.activities,property=Cached(PUBCHEM_COMPOUND_CID))>
100

> <MatchIndices>
193 

> <PUBCHEM_ATOM_DEF_STEREO_COUNT>
0

> <PUBCHEM_ATOM_UDEF_STEREO_COUNT>
1

> <PUBCHEM_BONDANNOTATIONS>
10  35  3
13  14  8
14  19  8
20  22  8
20  23  8
22  24  8
23  25  8
24  26  8
25  26  8
4  13  8
4  15  8
5  15  8
5  19  8

> <PUBCHEM_BOND_DEF_STEREO_COUNT>
0

> <PUBCHEM_BOND_UDEF_STEREO_COUNT>
0

> <PUBCHEM_CACTVS_COMPLEXITY>
484

> <PUBCHEM_CACTVS_HBOND_ACCEPTOR>
2

> <PUBCHEM_CACTVS_HBOND_DONOR>
0

> <PUBCHEM_CACTVS_ROTATABLE_BOND>
3

> <PUBCHEM_CACTVS_SUBSKEYS>
AAADceB7oAAAAAAAAAAAAAAAAAAAAAAAAAA8eIEAAAAAAACxwAAAHgAAAAAADQzBngQzkJcIEACoA6RyZACCgCklAKAJmCE4RNiIaDrA2dGUJYhogALIyWcYicCeAAAAAAAAAACAAACAAAQAAAAAAAAAAA==

> <PUBCHEM_CACTVS_TAUTO_COUNT>
2

> <PUBCHEM_CACTVS_TPSA>
49.3

> <PUBCHEM_COMPONENT_COUNT>
1

> <PUBCHEM_COMPOUND_CANONICALIZED>
1

> <PUBCHEM_COMPOUND_CID>
666977

> <PUBCHEM_COORDINATE_TYPE>
1
5
255

> <PUBCHEM_EXACT_MASS>
350.210661

> <PUBCHEM_HEAVY_ATOM_COUNT>
26

> <PUBCHEM_ISOTOPIC_ATOM_COUNT>
0

> <PUBCHEM_IUPAC_CAS_NAME>
4,7-dimethyl-2-[4-(phenylmethyl)-1-piperazinyl]-7,8-dihydro-6H-quinazolin-5-one

> <PUBCHEM_IUPAC_INCHI>
InChI=1S/C21H26N4O/c1-15-12-18-20(19(26)13-15)16(2)22-21(23-18)25-10-8-24(9-11-25)14-17-6-4-3-5-7-17/h3-7,15H,8-14H2,1-2H3

> <PUBCHEM_IUPAC_INCHIKEY>
HQMIWLXGUWTSCH-UHFFFAOYSA-N

> <PUBCHEM_IUPAC_NAME>
2-(4-benzylpiperazin-1-yl)-4,7-dimethyl-7,8-dihydro-6H-quinazolin-5-one

> <PUBCHEM_IUPAC_OPENEYE_NAME>
2-(4-benzylpiperazin-1-yl)-4,7-dimethyl-7,8-dihydro-6H-quinazolin-5-one

> <PUBCHEM_IUPAC_SYSTEMATIC_NAME>
4,7-dimethyl-2-[4-(phenylmethyl)piperazin-1-yl]-7,8-dihydro-6H-quinazolin-5-one

> <PUBCHEM_IUPAC_TRADITIONAL_NAME>
2-(4-benzylpiperazino)-4,7-dimethyl-7,8-dihydro-6H-quinazolin-5-one

> <PUBCHEM_MOLECULAR_FORMULA>
C21H26N4O

> <PUBCHEM_MOLECULAR_WEIGHT>
350.45734

> <PUBCHEM_MONOISOTOPIC_WEIGHT>
350.210661

> <PUBCHEM_OPENEYE_CAN_SMILES>
CC1CC2=C(C(=NC(=N2)N3CCN(CC3)CC4=CC=CC=C4)C)C(=O)C1

> <PUBCHEM_OPENEYE_ISO_SMILES>
CC1CC2=C(C(=NC(=N2)N3CCN(CC3)CC4=CC=CC=C4)C)C(=O)C1

> <PUBCHEM_TOTAL_CHARGE>
0

> <PUBCHEM_XLOGP3_AA>
2.9

$$$$
Largest isolated from Written by BCL::WriteToMDL,4313716
JMcorina  04211410293D 1   1.00000     0.00000 
CORINA 3.49 0026  01.06.2011
 52 53  0  0  0  0  0  0  0  0999 V2000
   -1.8747    0.8938    0.2348 O   0  0  0  1  0  0  0  0  0  0  0  0
    0.1417   -5.2976    3.6203 N   0  0  0  1  0  0  0  0  0  0  0  0
   -0.1956   -4.4741   -0.0657 C   0  0  0  1  0  0  0  0  0  0  0  0
    0.7761   -4.6400   -1.2358 C   0  0  0  1  0  0  0  0  0  0  0  0
    0.5048   -4.8628    1.2378 C   0  0  0  1  0  0  0  0  0  0  0  0
   -0.4994   -4.8119    2.3911 C   0  0  0  1  0  0  0  0  0  0  0  0
   -0.6448   -3.0378    0.0143 C   0  0  0  1  0  0  0  0  0  0  0  0
    1.1302   -6.1196   -1.3988 C   0  0  0  1  0  0  0  0  0  0  0  0
    0.1203   -4.1282   -2.5199 C   0  0  0  1  0  0  0  0  0  0  0  0
   -0.7949   -5.2630    4.7516 C   0  0  0  1  0  0  0  0  0  0  0  0
   -1.9867   -2.7268   -0.1049 C   0  0  0  1  0  0  0  0  0  0  0  0
    0.2850   -2.0339    0.2125 C   0  0  0  1  0  0  0  0  0  0  0  0
   -0.3746   -6.2781    5.7830 C   0  0  0  1  0  0  0  0  0  0  0  0
   -0.7873   -3.8668    5.3774 C   0  0  0  1  0  0  0  0  0  0  0  0
   -2.4011   -1.4110   -0.0314 C   0  0  0  1  0  0  0  0  0  0  0  0
   -0.1243   -0.7166    0.2867 C   0  0  0  1  0  0  0  0  0  0  0  0
   -1.4696   -0.4013    0.1622 C   0  0  0  1  0  0  0  0  0  0  0  0
   -1.3289   -7.0338    6.4380 C   0  0  0  1  0  0  0  0  0  0  0  0
    0.9657   -6.4575    6.0700 C   0  0  0  1  0  0  0  0  0  0  0  0
   -0.9433   -7.9649    7.3842 C   0  0  0  1  0  0  0  0  0  0  0  0
    1.3513   -7.3887    7.0161 C   0  0  0  1  0  0  0  0  0  0  0  0
    0.3966   -8.1407    7.6750 C   0  0  0  1  0  0  0  0  0  0  0  0
   -0.8607    1.8805    0.4354 C   0  0  0  1  0  0  0  0  0  0  0  0
   -1.0618   -5.1177   -0.2187 H   0  0  0  1  0  0  0  0  0  0  0  0
    1.6833   -4.0689   -1.0386 H   0  0  0  1  0  0  0  0  0  0  0  0
    0.9044   -5.8729    1.1484 H   0  0  0  1  0  0  0  0  0  0  0  0
    1.3194   -4.1658    1.4344 H   0  0  0  1  0  0  0  0  0  0  0  0
   -1.3565   -5.4425    2.1547 H   0  0  0  1  0  0  0  0  0  0  0  0
   -0.8334   -3.7847    2.5369 H   0  0  0  1  0  0  0  0  0  0  0  0
    0.2159   -6.7011   -1.5166 H   0  0  0  1  0  0  0  0  0  0  0  0
    1.7585   -6.2478   -2.2802 H   0  0  0  1  0  0  0  0  0  0  0  0
    1.6685   -6.4637   -0.5157 H   0  0  0  1  0  0  0  0  0  0  0  0
   -0.1319   -3.0741   -2.4038 H   0  0  0  1  0  0  0  0  0  0  0  0
    0.8126   -4.2464   -3.3535 H   0  0  0  1  0  0  0  0  0  0  0  0
   -0.7869   -4.6993   -2.7172 H   0  0  0  1  0  0  0  0  0  0  0  0
    0.5173   -6.2250    3.4902 H   0  0  0  1  0  0  0  0  0  0  0  0
   -1.7993   -5.4977    4.3990 H   0  0  0  1  0  0  0  0  0  0  0  0
   -2.7115   -3.5131   -0.2559 H   0  0  0  1  0  0  0  0  0  0  0  0
    1.3321   -2.2798    0.3098 H   0  0  0  1  0  0  0  0  0  0  0  0
    0.2170   -3.6321    5.7299 H   0  0  0  1  0  0  0  0  0  0  0  0
   -1.0914   -3.1326    4.6313 H   0  0  0  1  0  0  0  0  0  0  0  0
   -1.4823   -3.8411    6.2167 H   0  0  0  1  0  0  0  0  0  0  0  0
   -3.4494   -1.1685   -0.1249 H   0  0  0  1  0  0  0  0  0  0  0  0
    0.6024    0.0672    0.4419 H   0  0  0  1  0  0  0  0  0  0  0  0
   -2.3758   -6.8965    6.2108 H   0  0  0  1  0  0  0  0  0  0  0  0
    1.7116   -5.8705    5.5548 H   0  0  0  1  0  0  0  0  0  0  0  0
   -1.6890   -8.5548    7.8964 H   0  0  0  1  0  0  0  0  0  0  0  0
    2.3984   -7.5291    7.2401 H   0  0  0  1  0  0  0  0  0  0  0  0
    0.6978   -8.8679    8.4144 H   0  0  0  1  0  0  0  0  0  0  0  0
   -0.1484    1.8422   -0.3888 H   0  0  0  1  0  0  0  0  0  0  0  0
   -1.3183    2.8690    0.4745 H   0  0  0  1  0  0  0  0  0  0  0  0
   -0.3419    1.6829    1.3734 H   0  0  0  1  0  0  0  0  0  0  0  0
  1 17  1  0  0  0  0
  1 23  1  0  0  0  0
  2  6  1  0  0  0  0
  2 10  1  0  0  0  0
  2 36  1  0  0  0  0
  3  4  1  0  0  0  0
  3  5  1  0  0  0  0
  3  7  1  0  0  0  0
  3 24  1  0  0  0  0
  4  8  1  0  0  0  0
  4  9  1  0  0  0  0
  4 25  1  0  0  0  0
  5  6  1  0  0  0  0
  5 26  1  0  0  0  0
  5 27  1  0  0  0  0
  6 28  1  0  0  0  0
  6 29  1  0  0  0  0
  7 11  4  0  0  0  0
  7 12  4  0  0  0  0
  8 30  1  0  0  0  0
  8 31  1  0  0  0  0
  8 32  1  0  0  0  0
  9 33  1  0  0  0  0
  9 34  1  0  0  0  0
  9 35  1  0  0  0  0
 10 13  1  0  0  0  0
 10 14  1  0  0  0  0
 10 37  1  0  0  0  0
 11 15  4  0  0  0  0
 11 38  1  0  0  0  0
 12 16  4  0  0  0  0
 12 39  1  0  0  0  0
 13 18  4  0  0  0  0
 13 19  4  0  0  0  0
 14 40  1  0  0  0  0
 14 41  1  0  0  0  0
 14 42  1  0  0  0  0
 15 17  4  0  0  0  0
 15 43  1  0  0  0  0
 16 17  4  0  0  0  0
 16 44  1  0  0  0  0
 18 20  4  0  0  0  0
 18 45  1  0  0  0  0
 19 21  4  0  0  0  0
 19 46  1  0  0  0  0
 20 22  4  0  0  0  0
 20 47  1  0  0  0  0
 21 22  4  0  0  0  0
 21 48  1  0  0  0  0
 22 49  1  0  0  0  0
 23 50  1  0  0  0  0
 23 51  1  0  0  0  0
 23 52  1  0  0  0  0
M  END
> <Activity>
0.01

> <Mapped(file=2032.csv.activities,property=Cached(PUBCHEM_COMPOUND_CID))>
100

> <MatchIndices>
220 

> <PUBCHEM_ATOM_DEF_STEREO_COUNT>
0

> <PUBCHEM_ATOM_UDEF_STEREO_COUNT>
2

> <PUBCHEM_BONDANNOTATIONS>
10  14  3
11  15  8
12  16  8
13  18  8
13  19  8
15  17  8
16  17  8
18  20  8
19  21  8
20  22  8
21  22  8
3  5  3
7  11  8
7  12  8

> <PUBCHEM_BOND_DEF_STEREO_COUNT>
0

> <PUBCHEM_BOND_UDEF_STEREO_COUNT>
0

> <PUBCHEM_CACTVS_COMPLEXITY>
303

> <PUBCHEM_CACTVS_HBOND_ACCEPTOR>
2

> <PUBCHEM_CACTVS_HBOND_DONOR>
1

> <PUBCHEM_CACTVS_ROTATABLE_BOND>
8

> <PUBCHEM_CACTVS_SUBSKEYS>
AAADceB6IAAAAAAAAAAAAAAAAAAAAAAAAAAwYAAAAAAAAAABQAAAHgAQAAAADSzBmAYyBoLABACAAiBCAACCCAAgIAAIiIAODIgMJiKEsRuEMChk0BGIqAeQwPAOoAAAAAAAAABAAAAAAAAAAAAAAAAAAA==

> <PUBCHEM_CACTVS_TAUTO_COUNT>
1

> <PUBCHEM_CACTVS_TPSA>
21.3

> <PUBCHEM_COMPONENT_COUNT>
1

> <PUBCHEM_COMPOUND_CANONICALIZED>
1

> <PUBCHEM_COMPOUND_CID>
4313716

> <PUBCHEM_COORDINATE_TYPE>
1
5
255

> <PUBCHEM_EXACT_MASS>
311.224915

> <PUBCHEM_HEAVY_ATOM_COUNT>
23

> <PUBCHEM_ISOTOPIC_ATOM_COUNT>
0

> <PUBCHEM_IUPAC_CAS_NAME>
3-(4-methoxyphenyl)-4-methyl-N-(1-phenylethyl)-1-pentanamine

> <PUBCHEM_IUPAC_INCHI>
InChI=1S/C21H29NO/c1-16(2)21(19-10-12-20(23-4)13-11-19)14-15-22-17(3)18-8-6-5-7-9-18/h5-13,16-17,21-22H,14-15H2,1-4H3

> <PUBCHEM_IUPAC_INCHIKEY>
FSRSEQHPNWNBKP-UHFFFAOYSA-N

> <PUBCHEM_IUPAC_NAME>
3-(4-methoxyphenyl)-4-methyl-N-(1-phenylethyl)pentan-1-amine

> <PUBCHEM_IUPAC_OPENEYE_NAME>
3-(4-methoxyphenyl)-4-methyl-N-(1-phenylethyl)pentan-1-amine

> <PUBCHEM_IUPAC_SYSTEMATIC_NAME>
3-(4-methoxyphenyl)-4-methyl-N-(1-phenylethyl)pentan-1-amine

> <PUBCHEM_IUPAC_TRADITIONAL_NAME>
[3-(4-methoxyphenyl)-4-methyl-pentyl]-(1-phenylethyl)amine

> <PUBCHEM_MOLECULAR_FORMULA>
C21H29NO

> <PUBCHEM_MOLECULAR_WEIGHT>
311.46106

> <PUBCHEM_MONOISOTOPIC_WEIGHT>
311.224915

> <PUBCHEM_OPENEYE_CAN_SMILES>
CC(C)C(CCNC(C)C1=CC=CC=C1)C2=CC=C(C=C2)OC

> <PUBCHEM_OPENEYE_ISO_SMILES>
CC(C)C(CCNC(C)C1=CC=CC=C1)C2=CC=C(C=C2)OC

> <PUBCHEM_TOTAL_CHARGE>
0

> <PUBCHEM_XLOGP3_AA>
5.1

$$$$
Largest isolated from Written by BCL::WriteToMDL,16194857
JMcorina  04211410293D 1   1.00000     0.00000 
CORINA 3.49 0026  01.06.2011
 46 48  0  0  0  0  0  0  0  0999 V2000
   -0.0171    1.4118    0.0098 O   0  0  0  1  0  0  0  0  0  0  0  0
    0.5395    3.9492    1.2392 O   0  0  0  1  0  0  0  0  0  0  0  0
    3.0123    8.2170    1.0429 O   0  0  0  1  0  0  0  0  0  0  0  0
    2.3854    5.6382   -0.1162 N   0  0  0  1  0  0  0  0  0  0  0  0
    0.0021   -0.0041    0.0020 N   0  0  0  1  0  0  0  0  0  0  0  0
   -2.6375   -2.4384    0.0146 C   0  0  0  1  0  0  0  0  0  0  0  0
   -3.3955   -1.1658    0.0290 C   0  0  0  1  0  0  0  0  0  0  0  0
   -1.2641   -2.1448    0.0026 C   0  0  0  1  0  0  0  0  0  0  0  0
   -2.4833   -0.0979    0.0258 C   0  0  0  1  0  0  0  0  0  0  0  0
   -1.1160   -0.6700    0.0091 C   0  0  0  1  0  0  0  0  0  0  0  0
    1.1388    3.5341    0.0102 C   0  0  0  1  0  0  0  0  0  0  0  0
    2.5212    4.1756   -0.1253 C   0  0  0  1  0  0  0  0  0  0  0  0
   -4.7617   -0.8984    0.0436 C   0  0  0  1  0  0  0  0  0  0  0  0
   -3.0531   -3.7671    0.0168 C   0  0  0  1  0  0  0  0  0  0  0  0
    1.2803    2.0107    0.0006 C   0  0  0  1  0  0  0  0  0  0  0  0
   -2.9497    1.2120    0.0375 C   0  0  0  1  0  0  0  0  0  0  0  0
   -0.3346   -3.1789   -0.0115 C   0  0  0  1  0  0  0  0  0  0  0  0
    3.6959    6.2895   -0.2447 C   0  0  0  1  0  0  0  0  0  0  0  0
   -5.2099    0.4085    0.0555 C   0  0  0  1  0  0  0  0  0  0  0  0
   -2.1175   -4.7837    0.0012 C   0  0  0  1  0  0  0  0  0  0  0  0
   -4.3095    1.4590    0.0523 C   0  0  0  1  0  0  0  0  0  0  0  0
   -0.7650   -4.4923   -0.0136 C   0  0  0  1  0  0  0  0  0  0  0  0
    3.5140    7.8086   -0.2313 C   0  0  0  1  0  0  0  0  0  0  0  0
    2.8056    9.6259    1.1618 C   0  0  0  1  0  0  0  0  0  0  0  0
    0.5103    3.8459   -0.8240 H   0  0  0  1  0  0  0  0  0  0  0  0
    2.9784    3.8590   -1.0628 H   0  0  0  1  0  0  0  0  0  0  0  0
    3.1497    3.8638    0.7089 H   0  0  0  1  0  0  0  0  0  0  0  0
    1.8340    1.6917    0.8837 H   0  0  0  1  0  0  0  0  0  0  0  0
    1.8170    1.7013   -0.8962 H   0  0  0  1  0  0  0  0  0  0  0  0
   -5.4712   -1.7126    0.0462 H   0  0  0  1  0  0  0  0  0  0  0  0
   -4.1069   -4.0033    0.0306 H   0  0  0  1  0  0  0  0  0  0  0  0
   -2.2505    2.0351    0.0354 H   0  0  0  1  0  0  0  0  0  0  0  0
    0.7221   -2.9560   -0.0211 H   0  0  0  1  0  0  0  0  0  0  0  0
    1.7553    5.9474   -0.8411 H   0  0  0  1  0  0  0  0  0  0  0  0
    4.3325    5.9924    0.5886 H   0  0  0  1  0  0  0  0  0  0  0  0
    4.1611    5.9875   -1.1830 H   0  0  0  1  0  0  0  0  0  0  0  0
   -6.2706    0.6115    0.0661 H   0  0  0  1  0  0  0  0  0  0  0  0
   -2.4442   -5.8131    0.0036 H   0  0  0  1  0  0  0  0  0  0  0  0
   -4.6709    2.4767    0.0617 H   0  0  0  1  0  0  0  0  0  0  0  0
   -0.0424   -5.2948   -0.0250 H   0  0  0  1  0  0  0  0  0  0  0  0
    2.8072    8.0968   -1.0094 H   0  0  0  1  0  0  0  0  0  0  0  0
    4.4739    8.2911   -0.4154 H   0  0  0  1  0  0  0  0  0  0  0  0
    1.0458    3.7047    2.0260 H   0  0  0  1  0  0  0  0  0  0  0  0
    3.7508   10.1461    1.0065 H   0  0  0  1  0  0  0  0  0  0  0  0
    2.0842    9.9519    0.4125 H   0  0  0  1  0  0  0  0  0  0  0  0
    2.4243    9.8545    2.1570 H   0  0  0  1  0  0  0  0  0  0  0  0
  1  5  1  0  0  0  0
  1 15  1  0  0  0  0
  2 11  1  0  0  0  0
  2 43  1  0  0  0  0
  3 23  1  0  0  0  0
  3 24  1  0  0  0  0
  4 12  1  0  0  0  0
  4 18  1  0  0  0  0
  4 34  1  0  0  0  0
  5 10  2  0  0  0  0
  6  7  1  0  0  0  0
  6  8  4  0  0  0  0
  6 14  4  0  0  0  0
  7  9  4  0  0  0  0
  7 13  4  0  0  0  0
  8 10  1  0  0  0  0
  8 17  4  0  0  0  0
  9 10  1  0  0  0  0
  9 16  4  0  0  0  0
 11 12  1  0  0  0  0
 11 15  1  0  0  0  0
 11 25  1  0  0  0  0
 12 26  1  0  0  0  0
 12 27  1  0  0  0  0
 13 19  4  0  0  0  0
 13 30  1  0  0  0  0
 14 20  4  0  0  0  0
 14 31  1  0  0  0  0
 15 28  1  0  0  0  0
 15 29  1  0  0  0  0
 16 21  4  0  0  0  0
 16 32  1  0  0  0  0
 17 22  4  0  0  0  0
 17 33  1  0  0  0  0
 18 23  1  0  0  0  0
 18 35  1  0  0  0  0
 18 36  1  0  0  0  0
 19 21  4  0  0  0  0
 19 37  1  0  0  0  0
 20 22  4  0  0  0  0
 20 38  1  0  0  0  0
 21 39  1  0  0  0  0
 22 40  1  0  0  0  0
 23 41  1  0  0  0  0
 23 42  1  0  0  0  0
 24 44  1  0  0  0  0
 24 45  1  0  0  0  0
 24 46  1  0  0  0  0
M  END
> <Activity>
0.01

> <Mapped(file=2032.csv.activities,property=Cached(PUBCHEM_COMPOUND_CID))>
100

> <MatchIndices>
158 

> <PUBCHEM_ATOM_DEF_STEREO_COUNT>
0

> <PUBCHEM_ATOM_UDEF_STEREO_COUNT>
1

> <PUBCHEM_BONDANNOTATIONS>
13  19  8
14  20  8
16  21  8
17  22  8
19  21  8
11  2  3
20  22  8
6  14  8
6  8  8
7  13  8
7  9  8
8  17  8
9  16  8

> <PUBCHEM_BOND_DEF_STEREO_COUNT>
0

> <PUBCHEM_BOND_UDEF_STEREO_COUNT>
0

> <PUBCHEM_CACTVS_COMPLEXITY>
391

> <PUBCHEM_CACTVS_HBOND_ACCEPTOR>
5

> <PUBCHEM_CACTVS_HBOND_DONOR>
2

> <PUBCHEM_CACTVS_ROTATABLE_BOND>
8

> <PUBCHEM_CACTVS_SUBSKEYS>
AAADceB7MAAAAAAAAAAAAAAAAAAAAYAAAAAwYAAAAAAAAGABQAAAHgAUCAAADBzhmAYyAILQBgCgAyBiAAACAAAgAAAIiIAoAJgLMKKAERCFIAAikACZiAcAgMAOgAAAAAAQAAAAAAAAACAAAQAACAAAAA==

> <PUBCHEM_CACTVS_TAUTO_COUNT>
1

> <PUBCHEM_CACTVS_TPSA>
63.1

> <PUBCHEM_COMPONENT_COUNT>
1

> <PUBCHEM_COMPOUND_CANONICALIZED>
1

> <PUBCHEM_COMPOUND_CID>
16194857

> <PUBCHEM_COORDINATE_TYPE>
1
5
255

> <PUBCHEM_EXACT_MASS>
326.163043

> <PUBCHEM_HEAVY_ATOM_COUNT>
24

> <PUBCHEM_ISOTOPIC_ATOM_COUNT>
0

> <PUBCHEM_IUPAC_CAS_NAME>
1-(9-fluorenylideneamino)oxy-3-(2-methoxyethylamino)-2-propanol

> <PUBCHEM_IUPAC_INCHI>
InChI=1S/C19H22N2O3/c1-23-11-10-20-12-14(22)13-24-21-19-17-8-4-2-6-15(17)16-7-3-5-9-18(16)19/h2-9,14,20,22H,10-13H2,1H3

> <PUBCHEM_IUPAC_INCHIKEY>
LGUIHZSWDZEVEN-UHFFFAOYSA-N

> <PUBCHEM_IUPAC_NAME>
1-(fluoren-9-ylideneamino)oxy-3-(2-methoxyethylamino)propan-2-ol

> <PUBCHEM_IUPAC_OPENEYE_NAME>
1-(fluoren-9-ylideneamino)oxy-3-(2-methoxyethylamino)propan-2-ol

> <PUBCHEM_IUPAC_SYSTEMATIC_NAME>
1-(fluoren-9-ylideneamino)oxy-3-(2-methoxyethylamino)propan-2-ol

> <PUBCHEM_IUPAC_TRADITIONAL_NAME>
1-(fluoren-9-ylideneamino)oxy-3-(2-methoxyethylamino)propan-2-ol

> <PUBCHEM_MOLECULAR_FORMULA>
C19H22N2O3

> <PUBCHEM_MOLECULAR_WEIGHT>
326.38958

> <PUBCHEM_MONOISOTOPIC_WEIGHT>
326.163043

> <PUBCHEM_OPENEYE_CAN_SMILES>
COCCNCC(CON=C1C2=CC=CC=C2C3=CC=CC=C31)O

> <PUBCHEM_OPENEYE_ISO_SMILES>
COCCNCC(CON=C1C2=CC=CC=C2C3=CC=CC=C31)O

> <PUBCHEM_TOTAL_CHARGE>
0

> <PUBCHEM_XLOGP3_AA>
2.4

$$$$
Largest isolated from Written by BCL::WriteToMDL,17367817
JMcorina  04211410293D 1   1.00000     0.00000 
CORINA 3.49 0026  01.06.2011
 40 42  0  0  0  0  0  0  0  0999 V2000
   -0.0164    1.3548    0.0095 O   0  0  0  1  0  0  0  0  0  0  0  0
    0.0532   -4.7597   -1.4084 N   0  0  0  1  0  0  0  0  0  0  0  0
    0.0651   -6.6848   -2.8913 C   0  0  0  1  0  0  0  0  0  0  0  0
    0.0727   -6.2278   -1.4552 C   0  0  0  1  0  0  0  0  0  0  0  0
    1.2545   -6.6816   -3.6399 C   0  0  0  1  0  0  0  0  0  0  0  0
    1.2273   -7.1151   -4.9892 C   0  0  0  1  0  0  0  0  0  0  0  0
    0.0600   -4.2770   -0.0210 C   0  0  0  1  0  0  0  0  0  0  0  0
   -1.0926   -7.1079   -3.4682 C   0  0  0  1  0  0  0  0  0  0  0  0
    0.0396   -2.7702   -0.0132 C   0  0  0  1  0  0  0  0  0  0  0  0
    2.4700   -6.2570   -3.0774 C   0  0  0  1  0  0  0  0  0  0  0  0
    0.0114   -7.5395   -5.5522 C   0  0  0  1  0  0  0  0  0  0  0  0
   -1.1193   -7.5346   -4.7948 C   0  0  0  1  0  0  0  0  0  0  0  0
    2.4161   -7.1117   -5.7381 C   0  0  0  1  0  0  0  0  0  0  0  0
    3.6020   -6.2673   -3.8334 C   0  0  0  1  0  0  0  0  0  0  0  0
    3.5752   -6.6934   -5.1597 C   0  0  0  1  0  0  0  0  0  0  0  0
   -1.1677   -2.0964    0.0019 C   0  0  0  1  0  0  0  0  0  0  0  0
    1.2282   -2.0638   -0.0155 C   0  0  0  1  0  0  0  0  0  0  0  0
   -1.1891   -0.7152    0.0096 C   0  0  0  1  0  0  0  0  0  0  0  0
    1.2122   -0.6825   -0.0079 C   0  0  0  1  0  0  0  0  0  0  0  0
    0.0021   -0.0041    0.0020 C   0  0  0  1  0  0  0  0  0  0  0  0
    1.2479    2.0208    0.0010 C   0  0  0  1  0  0  0  0  0  0  0  0
    0.9726   -6.5951   -0.9619 H   0  0  0  1  0  0  0  0  0  0  0  0
   -0.8071   -6.6193   -0.9446 H   0  0  0  1  0  0  0  0  0  0  0  0
   -0.8199   -4.6550    0.4995 H   0  0  0  1  0  0  0  0  0  0  0  0
    0.9598   -4.6308    0.4823 H   0  0  0  1  0  0  0  0  0  0  0  0
    0.8243   -4.3710   -1.9303 H   0  0  0  1  0  0  0  0  0  0  0  0
   -2.0043   -7.1134   -2.8893 H   0  0  0  1  0  0  0  0  0  0  0  0
    2.5059   -5.9237   -2.0508 H   0  0  0  1  0  0  0  0  0  0  0  0
   -0.0245   -7.8723   -6.5790 H   0  0  0  1  0  0  0  0  0  0  0  0
   -2.0513   -7.8658   -5.2284 H   0  0  0  1  0  0  0  0  0  0  0  0
    2.4104   -7.4396   -6.7671 H   0  0  0  1  0  0  0  0  0  0  0  0
    4.5349   -5.9400   -3.3986 H   0  0  0  1  0  0  0  0  0  0  0  0
    4.4877   -6.6921   -5.7374 H   0  0  0  1  0  0  0  0  0  0  0  0
   -2.0947   -2.6504    0.0075 H   0  0  0  1  0  0  0  0  0  0  0  0
    2.1700   -2.5924   -0.0228 H   0  0  0  1  0  0  0  0  0  0  0  0
   -2.1324   -0.1893    0.0210 H   0  0  0  1  0  0  0  0  0  0  0  0
    2.1409   -0.1312   -0.0093 H   0  0  0  1  0  0  0  0  0  0  0  0
    1.8173    1.7308    0.8840 H   0  0  0  1  0  0  0  0  0  0  0  0
    1.8003    1.7403   -0.8958 H   0  0  0  1  0  0  0  0  0  0  0  0
    1.0905    3.0993    0.0083 H   0  0  0  1  0  0  0  0  0  0  0  0
  1 20  1  0  0  0  0
  1 21  1  0  0  0  0
  2  4  1  0  0  0  0
  2  7  1  0  0  0  0
  2 26  1  0  0  0  0
  3  4  1  0  0  0  0
  3  5  4  0  0  0  0
  3  8  4  0  0  0  0
  4 22  1  0  0  0  0
  4 23  1  0  0  0  0
  5  6  4  0  0  0  0
  5 10  4  0  0  0  0
  6 11  4  0  0  0  0
  6 13  4  0  0  0  0
  7  9  1  0  0  0  0
  7 24  1  0  0  0  0
  7 25  1  0  0  0  0
  8 12  4  0  0  0  0
  8 27  1  0  0  0  0
  9 16  4  0  0  0  0
  9 17  4  0  0  0  0
 10 14  4  0  0  0  0
 10 28  1  0  0  0  0
 11 12  4  0  0  0  0
 11 29  1  0  0  0  0
 12 30  1  0  0  0  0
 13 15  4  0  0  0  0
 13 31  1  0  0  0  0
 14 15  4  0  0  0  0
 14 32  1  0  0  0  0
 15 33  1  0  0  0  0
 16 18  4  0  0  0  0
 16 34  1  0  0  0  0
 17 19  4  0  0  0  0
 17 35  1  0  0  0  0
 18 20  4  0  0  0  0
 18 36  1  0  0  0  0
 19 20  4  0  0  0  0
 19 37  1  0  0  0  0
 21 38  1  0  0  0  0
 21 39  1  0  0  0  0
 21 40  1  0  0  0  0
M  END
> <Activity>
0.01

> <Mapped(file=2032.csv.activities,property=Cached(PUBCHEM_COMPOUND_CID))>
100

> <MatchIndices>
0 

> <PUBCHEM_ATOM_DEF_STEREO_COUNT>
0

> <PUBCHEM_ATOM_UDEF_STEREO_COUNT>
0

> <PUBCHEM_BONDANNOTATIONS>
10  15  8
10  17  8
12  16  8
13  20  8
13  21  8
14  18  8
15  16  8
17  19  8
18  19  8
20  22  8
21  23  8
22  24  8
23  24  8
7  12  8
7  9  8
9  10  8
9  14  8

> <PUBCHEM_BOND_DEF_STEREO_COUNT>
0

> <PUBCHEM_BOND_UDEF_STEREO_COUNT>
0

> <PUBCHEM_CACTVS_COMPLEXITY>
370

> <PUBCHEM_CACTVS_HBOND_ACCEPTOR>
6

> <PUBCHEM_CACTVS_HBOND_DONOR>
3

> <PUBCHEM_CACTVS_ROTATABLE_BOND>
6

> <PUBCHEM_CACTVS_SUBSKEYS>
AAADceB6OAAAAAAAAAAAAAAAAAAAAAAAAAAwYMAAAAAAAADBVAAAHgAQCAAADATBmAYyDsLABgCIAiDSCAKCCAAgIAAIiIBODIgNJiKEsRuEMChkwBGJqAeQ0MIOoAACAAAQAABAAAQAACAAAAAAAAAAAA==

> <PUBCHEM_CACTVS_TAUTO_COUNT>
1

> <PUBCHEM_CACTVS_TPSA>
95.9

> <PUBCHEM_COMPONENT_COUNT>
2

> <PUBCHEM_COMPOUND_CANONICALIZED>
1

> <PUBCHEM_COMPOUND_CID>
17367817

> <PUBCHEM_COORDINATE_TYPE>
1
5
255

> <PUBCHEM_EXACT_MASS>
367.141973

> <PUBCHEM_HEAVY_ATOM_COUNT>
27

> <PUBCHEM_ISOTOPIC_ATOM_COUNT>
0

> <PUBCHEM_IUPAC_CAS_NAME>
1-(4-methoxyphenyl)-N-(1-naphthalenylmethyl)methanamine; oxalic acid

> <PUBCHEM_IUPAC_INCHI>
InChI=1S/C19H19NO.C2H2O4/c1-21-18-11-9-15(10-12-18)13-20-14-17-7-4-6-16-5-2-3-8-19(16)17;3-1(4)2(5)6/h2-12,20H,13-14H2,1H3;(H,3,4)(H,5,6)

> <PUBCHEM_IUPAC_INCHIKEY>
YGHWLVHQJXNFHZ-UHFFFAOYSA-N

> <PUBCHEM_IUPAC_NAME>
1-(4-methoxyphenyl)-N-(naphthalen-1-ylmethyl)methanamine; oxalic acid

> <PUBCHEM_IUPAC_OPENEYE_NAME>
1-(4-methoxyphenyl)-N-(1-naphthylmethyl)methanamine; oxalic acid

> <PUBCHEM_IUPAC_SYSTEMATIC_NAME>
ethanedioic acid; 1-(4-methoxyphenyl)-N-(naphthalen-1-ylmethyl)methanamine

> <PUBCHEM_IUPAC_TRADITIONAL_NAME>
1-naphthylmethyl(p-anisyl)amine; oxalic acid

> <PUBCHEM_MOLECULAR_FORMULA>
C21H21NO5

> <PUBCHEM_MOLECULAR_WEIGHT>
367.39514

> <PUBCHEM_MONOISOTOPIC_WEIGHT>
367.141973

> <PUBCHEM_OPENEYE_CAN_SMILES>
COC1=CC=C(C=C1)CNCC2=CC=CC3=CC=CC=C32.C(=O)(C(=O)O)O

> <PUBCHEM_OPENEYE_ISO_SMILES>
COC1=CC=C(C=C1)CNCC2=CC=CC3=CC=CC=C32.C(=O)(C(=O)O)O

> <PUBCHEM_TOTAL_CHARGE>
0

$$$$
Largest isolated from Written by BCL::WriteToMDL,16197172
JMcorina  04211410293D 1   1.00000     0.00000 
CORINA 3.49 0026  01.06.2011
 46 48  0  0  0  0  0  0  0  0999 V2000
    6.1231   -0.6186   -5.5749 Br  0  0  0  1  0  0  0  0  0  0  0  0
   -0.0173    1.4261    0.0099 O   0  0  0  1  0  0  0  0  0  0  0  0
   -1.3077   -0.5019   -0.2783 O   0  0  0  1  0  0  0  0  0  0  0  0
    2.2629    4.0991    0.3828 O   0  0  0  1  0  0  0  0  0  0  0  0
   -8.3682   -2.0773    0.2154 O   0  0  0  1  0  0  0  0  0  0  0  0
    0.0681    4.1271    0.7235 N   0  0  0  1  0  0  0  0  0  0  0  0
    2.3791    0.0272   -0.7222 C   0  0  0  1  0  0  0  0  0  0  0  0
    0.9761   -0.4672   -1.0898 C   0  0  0  1  0  0  0  0  0  0  0  0
    0.0021   -0.0041    0.0020 C   0  0  0  1  0  0  0  0  0  0  0  0
    3.2945   -0.1309   -1.9089 C   0  0  0  1  0  0  0  0  0  0  0  0
    2.3123    1.4783   -0.3302 C   0  0  0  1  0  0  0  0  0  0  0  0
    1.1751    2.0696    0.0020 C   0  0  0  1  0  0  0  0  0  0  0  0
    4.4188   -0.9295   -1.8128 C   0  0  0  1  0  0  0  0  0  0  0  0
    3.0065    0.5182   -3.0950 C   0  0  0  1  0  0  0  0  0  0  0  0
   -2.2735   -0.1970    0.7297 C   0  0  0  1  0  0  0  0  0  0  0  0
   -3.6110   -0.7666    0.3327 C   0  0  0  1  0  0  0  0  0  0  0  0
    1.2078    3.4947    0.3804 C   0  0  0  1  0  0  0  0  0  0  0  0
    5.2588   -1.0745   -2.9008 C   0  0  0  1  0  0  0  0  0  0  0  0
    3.8458    0.3734   -4.1837 C   0  0  0  1  0  0  0  0  0  0  0  0
    4.9742   -0.4207   -4.0861 C   0  0  0  1  0  0  0  0  0  0  0  0
   -3.9573   -2.0490    0.7155 C   0  0  0  1  0  0  0  0  0  0  0  0
   -4.4940   -0.0047   -0.4095 C   0  0  0  1  0  0  0  0  0  0  0  0
   -6.0649   -1.8116   -0.3953 C   0  0  0  1  0  0  0  0  0  0  0  0
   -5.1841   -2.5715    0.3513 C   0  0  0  1  0  0  0  0  0  0  0  0
   -5.7209   -0.5273   -0.7736 C   0  0  0  1  0  0  0  0  0  0  0  0
   -7.4022   -2.3814   -0.7928 C   0  0  0  1  0  0  0  0  0  0  0  0
    2.7632   -0.5577    0.1135 H   0  0  0  1  0  0  0  0  0  0  0  0
    0.6783   -0.0471   -2.0505 H   0  0  0  1  0  0  0  0  0  0  0  0
    0.9733   -1.5557   -1.1473 H   0  0  0  1  0  0  0  0  0  0  0  0
    0.3350   -0.3723    0.9724 H   0  0  0  1  0  0  0  0  0  0  0  0
    3.2236    2.0578   -0.3193 H   0  0  0  1  0  0  0  0  0  0  0  0
    4.6409   -1.4399   -0.8873 H   0  0  0  1  0  0  0  0  0  0  0  0
    2.1255    1.1382   -3.1711 H   0  0  0  1  0  0  0  0  0  0  0  0
   -1.9595   -0.6338    1.6778 H   0  0  0  1  0  0  0  0  0  0  0  0
   -2.3568    0.8844    0.8378 H   0  0  0  1  0  0  0  0  0  0  0  0
    6.1375   -1.6978   -2.8254 H   0  0  0  1  0  0  0  0  0  0  0  0
    3.6209    0.8809   -5.1101 H   0  0  0  1  0  0  0  0  0  0  0  0
   -3.2691   -2.6428    1.2989 H   0  0  0  1  0  0  0  0  0  0  0  0
   -4.2254    0.9989   -0.7045 H   0  0  0  1  0  0  0  0  0  0  0  0
   -5.4543   -3.5737    0.6498 H   0  0  0  1  0  0  0  0  0  0  0  0
   -6.4108    0.0681   -1.3532 H   0  0  0  1  0  0  0  0  0  0  0  0
    0.0896    5.0644    0.9723 H   0  0  0  1  0  0  0  0  0  0  0  0
   -0.7736    3.6450    0.7216 H   0  0  0  1  0  0  0  0  0  0  0  0
   -7.3186   -3.4627   -0.9015 H   0  0  0  1  0  0  0  0  0  0  0  0
   -7.7163   -1.9442   -1.7406 H   0  0  0  1  0  0  0  0  0  0  0  0
   -9.2545   -2.4144    0.0254 H   0  0  0  1  0  0  0  0  0  0  0  0
  1 20  1  0  0  0  0
  2  9  1  0  0  0  0
  2 12  1  0  0  0  0
  3  9  1  0  0  0  0
  3 15  1  0  0  0  0
  4 17  2  0  0  0  0
  5 26  1  0  0  0  0
  5 46  1  0  0  0  0
  6 17  1  0  0  0  0
  6 42  1  0  0  0  0
  6 43  1  0  0  0  0
  7  8  1  0  0  0  0
  7 10  1  0  0  0  0
  7 11  1  0  0  0  0
  7 27  1  0  0  0  0
  8  9  1  0  0  0  0
  8 28  1  0  0  0  0
  8 29  1  0  0  0  0
  9 30  1  0  0  0  0
 10 13  4  0  0  0  0
 10 14  4  0  0  0  0
 11 12  2  0  0  0  0
 11 31  1  0  0  0  0
 12 17  1  0  0  0  0
 13 18  4  0  0  0  0
 13 32  1  0  0  0  0
 14 19  4  0  0  0  0
 14 33  1  0  0  0  0
 15 16  1  0  0  0  0
 15 34  1  0  0  0  0
 15 35  1  0  0  0  0
 16 21  4  0  0  0  0
 16 22  4  0  0  0  0
 18 20  4  0  0  0  0
 18 36  1  0  0  0  0
 19 20  4  0  0  0  0
 19 37  1  0  0  0  0
 21 24  4  0  0  0  0
 21 38  1  0  0  0  0
 22 25  4  0  0  0  0
 22 39  1  0  0  0  0
 23 24  4  0  0  0  0
 23 25  4  0  0  0  0
 23 26  1  0  0  0  0
 24 40  1  0  0  0  0
 25 41  1  0  0  0  0
 26 44  1  0  0  0  0
 26 45  1  0  0  0  0
M  END
> <Activity>
0.01

> <Mapped(file=2032.csv.activities,property=Cached(PUBCHEM_COMPOUND_CID))>
100

> <MatchIndices>
145 

> <PUBCHEM_ATOM_DEF_STEREO_COUNT>
2

> <PUBCHEM_ATOM_UDEF_STEREO_COUNT>
0

> <PUBCHEM_BONDANNOTATIONS>
10  13  8
10  14  8
13  18  8
14  19  8
16  21  8
16  22  8
18  20  8
19  20  8
21  24  8
22  25  8
23  24  8
23  25  8
9  3  6
7  10  6

> <PUBCHEM_BOND_DEF_STEREO_COUNT>
0

> <PUBCHEM_BOND_UDEF_STEREO_COUNT>
0

> <PUBCHEM_CACTVS_COMPLEXITY>
496

> <PUBCHEM_CACTVS_HBOND_ACCEPTOR>
4

> <PUBCHEM_CACTVS_HBOND_DONOR>
2

> <PUBCHEM_CACTVS_ROTATABLE_BOND>
6

> <PUBCHEM_CACTVS_SUBSKEYS>
AAADceB6OAAAEAAAAAAAAAAAAAAAAAAAAAAwYIAAAAAAAAABQAAAHgBQCAABrQSxmAMwCIBABgCIAiFSEAKCCAAgIAQIiABACOgaNiKAMRyjcAAkwAEMu5eAwPAOwgAAAAAAAACEAAAAAAAAAAAAAAAAAA==

> <PUBCHEM_CACTVS_TAUTO_COUNT>
2

> <PUBCHEM_CACTVS_TPSA>
81.8

> <PUBCHEM_COMPONENT_COUNT>
1

> <PUBCHEM_COMPOUND_CANONICALIZED>
1

> <PUBCHEM_COMPOUND_CID>
16197172

> <PUBCHEM_COORDINATE_TYPE>
1
5
255

> <PUBCHEM_EXACT_MASS>
417.05757

> <PUBCHEM_HEAVY_ATOM_COUNT>
26

> <PUBCHEM_ISOTOPIC_ATOM_COUNT>
0

> <PUBCHEM_IUPAC_CAS_NAME>
(2R,4R)-4-(4-bromophenyl)-2-[[4-(hydroxymethyl)phenyl]methoxy]-3,4-dihydro-2H-pyran-6-carboxamide

> <PUBCHEM_IUPAC_INCHI>
InChI=1S/C20H20BrNO4/c21-17-7-5-15(6-8-17)16-9-18(20(22)24)26-19(10-16)25-12-14-3-1-13(11-23)2-4-14/h1-9,16,19,23H,10-12H2,(H2,22,24)/t16-,19+/m0/s1

> <PUBCHEM_IUPAC_INCHIKEY>
JUEZGVPSQUWWDO-QFBILLFUSA-N

> <PUBCHEM_IUPAC_NAME>
(2R,4R)-4-(4-bromophenyl)-2-[[4-(hydroxymethyl)phenyl]methoxy]-3,4-dihydro-2H-pyran-6-carboxamide

> <PUBCHEM_IUPAC_OPENEYE_NAME>
(2R,4R)-4-(4-bromophenyl)-2-[[4-(hydroxymethyl)phenyl]methoxy]-3,4-dihydro-2H-pyran-6-carboxamide

> <PUBCHEM_IUPAC_SYSTEMATIC_NAME>
(2R,4R)-4-(4-bromophenyl)-2-[[4-(hydroxymethyl)phenyl]methoxy]-3,4-dihydro-2H-pyran-6-carboxamide

> <PUBCHEM_IUPAC_TRADITIONAL_NAME>
(2R,4R)-4-(4-bromophenyl)-2-(4-methylolbenzyl)oxy-3,4-dihydro-2H-pyran-6-carboxamide

> <PUBCHEM_MOLECULAR_FORMULA>
C20H20BrNO4

> <PUBCHEM_MOLECULAR_WEIGHT>
418.2811

> <PUBCHEM_MONOISOTOPIC_WEIGHT>
417.05757

> <PUBCHEM_OPENEYE_CAN_SMILES>
C1C(C=C(OC1OCC2=CC=C(C=C2)CO)C(=O)N)C3=CC=C(C=C3)Br

> <PUBCHEM_OPENEYE_ISO_SMILES>
C1[C@H](C=C(O[C@H]1OCC2=CC=C(C=C2)CO)C(=O)N)C3=CC=C(C=C3)Br

> <PUBCHEM_TOTAL_CHARGE>
0

> <PUBCHEM_XLOGP3_AA>
3

$$$$
Largest isolated from Written by BCL::WriteToMDL,4213523
JMcorina  04211410293D 1   1.00000     0.00000 
CORINA 3.49 0026  01.06.2011
 41 42  0  0  0  0  0  0  0  0999 V2000
   -8.1371   -5.8376    0.2806 F   0  0  0  1  0  0  0  0  0  0  0  0
   -0.0173    1.4248    0.0099 O   0  0  0  1  0  0  0  0  0  0  0  0
   -2.0889   -0.1578   -1.2000 O   0  0  0  1  0  0  0  0  0  0  0  0
   -2.7914   -2.5675    0.1407 N   0  0  0  1  0  0  0  0  0  0  0  0
   -1.4333   -0.5336    0.0129 C   0  0  0  1  0  0  0  0  0  0  0  0
   -1.4133   -2.0590    0.1302 C   0  0  0  1  0  0  0  0  0  0  0  0
    0.0021   -0.0041    0.0020 C   0  0  0  1  0  0  0  0  0  0  0  0
   -2.8114   -4.0321    0.2525 C   0  0  0  1  0  0  0  0  0  0  0  0
   -4.2385   -4.5159    0.2600 C   0  0  0  1  0  0  0  0  0  0  0  0
    1.1850    2.0582    0.0018 C   0  0  0  1  0  0  0  0  0  0  0  0
   -4.8679   -4.8292   -0.9303 C   0  0  0  1  0  0  0  0  0  0  0  0
   -4.9155   -4.6516    1.4577 C   0  0  0  1  0  0  0  0  0  0  0  0
    1.2402    3.4444    0.0087 C   0  0  0  1  0  0  0  0  0  0  0  0
    2.3594    1.3196   -0.0077 C   0  0  0  1  0  0  0  0  0  0  0  0
    3.6326    3.3475   -0.0147 C   0  0  0  1  0  0  0  0  0  0  0  0
   -6.1767   -5.2730   -0.9246 C   0  0  0  1  0  0  0  0  0  0  0  0
   -6.2242   -5.0956    1.4659 C   0  0  0  1  0  0  0  0  0  0  0  0
    2.4636    4.0858    0.0004 C   0  0  0  1  0  0  0  0  0  0  0  0
    3.5803    1.9658   -0.0159 C   0  0  0  1  0  0  0  0  0  0  0  0
   -6.8574   -5.4042    0.2739 C   0  0  0  1  0  0  0  0  0  0  0  0
    4.9659    4.0499   -0.0238 C   0  0  0  1  0  0  0  0  0  0  0  0
   -1.9701   -0.1109    0.8621 H   0  0  0  1  0  0  0  0  0  0  0  0
   -0.9132   -2.3457    1.0553 H   0  0  0  1  0  0  0  0  0  0  0  0
   -0.8764   -2.4817   -0.7190 H   0  0  0  1  0  0  0  0  0  0  0  0
    0.5123   -0.3556   -0.8948 H   0  0  0  1  0  0  0  0  0  0  0  0
    0.5293   -0.3651    0.8851 H   0  0  0  1  0  0  0  0  0  0  0  0
   -3.3286   -2.1410    0.8807 H   0  0  0  1  0  0  0  0  0  0  0  0
   -2.2842   -4.4685   -0.5959 H   0  0  0  1  0  0  0  0  0  0  0  0
   -2.3210   -4.3325    1.1785 H   0  0  0  1  0  0  0  0  0  0  0  0
   -1.6646   -0.4999   -1.9987 H   0  0  0  1  0  0  0  0  0  0  0  0
   -4.3367   -4.7267   -1.8650 H   0  0  0  1  0  0  0  0  0  0  0  0
   -4.4214   -4.4108    2.3874 H   0  0  0  1  0  0  0  0  0  0  0  0
    0.3274    4.0215    0.0202 H   0  0  0  1  0  0  0  0  0  0  0  0
    2.3191    0.2404   -0.0082 H   0  0  0  1  0  0  0  0  0  0  0  0
   -6.6684   -5.5170   -1.8547 H   0  0  0  1  0  0  0  0  0  0  0  0
   -6.7530   -5.2012    2.4016 H   0  0  0  1  0  0  0  0  0  0  0  0
    2.5071    5.1650    0.0055 H   0  0  0  1  0  0  0  0  0  0  0  0
    4.4948    1.3913   -0.0233 H   0  0  0  1  0  0  0  0  0  0  0  0
    5.2972    4.2137    1.0017 H   0  0  0  1  0  0  0  0  0  0  0  0
    5.6971    3.4346   -0.5479 H   0  0  0  1  0  0  0  0  0  0  0  0
    4.8676    5.0094   -0.5315 H   0  0  0  1  0  0  0  0  0  0  0  0
  1 20  1  0  0  0  0
  2  7  1  0  0  0  0
  2 10  1  0  0  0  0
  3  5  1  0  0  0  0
  3 30  1  0  0  0  0
  4  6  1  0  0  0  0
  4  8  1  0  0  0  0
  4 27  1  0  0  0  0
  5  6  1  0  0  0  0
  5  7  1  0  0  0  0
  5 22  1  0  0  0  0
  6 23  1  0  0  0  0
  6 24  1  0  0  0  0
  7 25  1  0  0  0  0
  7 26  1  0  0  0  0
  8  9  1  0  0  0  0
  8 28  1  0  0  0  0
  8 29  1  0  0  0  0
  9 11  4  0  0  0  0
  9 12  4  0  0  0  0
 10 13  4  0  0  0  0
 10 14  4  0  0  0  0
 11 16  4  0  0  0  0
 11 31  1  0  0  0  0
 12 17  4  0  0  0  0
 12 32  1  0  0  0  0
 13 18  4  0  0  0  0
 13 33  1  0  0  0  0
 14 19  4  0  0  0  0
 14 34  1  0  0  0  0
 15 18  4  0  0  0  0
 15 19  4  0  0  0  0
 15 21  1  0  0  0  0
 16 20  4  0  0  0  0
 16 35  1  0  0  0  0
 17 20  4  0  0  0  0
 17 36  1  0  0  0  0
 18 37  1  0  0  0  0
 19 38  1  0  0  0  0
 21 39  1  0  0  0  0
 21 40  1  0  0  0  0
 21 41  1  0  0  0  0
M  END
> <Activity>
0.01

> <Mapped(file=2032.csv.activities,property=Cached(PUBCHEM_COMPOUND_CID))>
100

> <MatchIndices>
7 

> <PUBCHEM_ATOM_DEF_STEREO_COUNT>
0

> <PUBCHEM_ATOM_UDEF_STEREO_COUNT>
1

> <PUBCHEM_BONDANNOTATIONS>
10  13  8
10  14  8
11  16  8
12  17  8
13  18  8
14  19  8
15  18  8
15  19  8
16  20  8
17  20  8
5  22  3
9  11  8
9  12  8

> <PUBCHEM_BOND_DEF_STEREO_COUNT>
0

> <PUBCHEM_BOND_UDEF_STEREO_COUNT>
0

> <PUBCHEM_CACTVS_COMPLEXITY>
274

> <PUBCHEM_CACTVS_HBOND_ACCEPTOR>
4

> <PUBCHEM_CACTVS_HBOND_DONOR>
2

> <PUBCHEM_CACTVS_ROTATABLE_BOND>
7

> <PUBCHEM_CACTVS_SUBSKEYS>
AAADceB6MQAAAAAAAAAAAAAAAAAAAAAAAAAwYAAAAAAAAAABQAAAHwAQCAAADBThmA4yBoLABgCAAiBCAACCCAAgIAAIiIAODIgPNiKEsRuGOCjm0BGbqAeQwAAOIAAAAAAAAABAAAAAAAAAAAAAAAAAAA==

> <PUBCHEM_CACTVS_TAUTO_COUNT>
1

> <PUBCHEM_CACTVS_TPSA>
41.5

> <PUBCHEM_COMPONENT_COUNT>
1

> <PUBCHEM_COMPOUND_CANONICALIZED>
1

> <PUBCHEM_COMPOUND_CID>
4213523

> <PUBCHEM_COORDINATE_TYPE>
1
5
255

> <PUBCHEM_EXACT_MASS>
289.147807

> <PUBCHEM_HEAVY_ATOM_COUNT>
21

> <PUBCHEM_ISOTOPIC_ATOM_COUNT>
0

> <PUBCHEM_IUPAC_CAS_NAME>
1-[(4-fluorophenyl)methylamino]-3-(4-methylphenoxy)-2-propanol

> <PUBCHEM_IUPAC_INCHI>
InChI=1S/C17H20FNO2/c1-13-2-8-17(9-3-13)21-12-16(20)11-19-10-14-4-6-15(18)7-5-14/h2-9,16,19-20H,10-12H2,1H3

> <PUBCHEM_IUPAC_INCHIKEY>
NSADBIXOJGJCHV-UHFFFAOYSA-N

> <PUBCHEM_IUPAC_NAME>
1-[(4-fluorophenyl)methylamino]-3-(4-methylphenoxy)propan-2-ol

> <PUBCHEM_IUPAC_OPENEYE_NAME>
1-[(4-fluorophenyl)methylamino]-3-(4-methylphenoxy)propan-2-ol

> <PUBCHEM_IUPAC_SYSTEMATIC_NAME>
1-[(4-fluorophenyl)methylamino]-3-(4-methylphenoxy)propan-2-ol

> <PUBCHEM_IUPAC_TRADITIONAL_NAME>
1-[(4-fluorobenzyl)amino]-3-(4-methylphenoxy)propan-2-ol

> <PUBCHEM_MOLECULAR_FORMULA>
C17H20FNO2

> <PUBCHEM_MOLECULAR_WEIGHT>
289.344603

> <PUBCHEM_MONOISOTOPIC_WEIGHT>
289.147807

> <PUBCHEM_OPENEYE_CAN_SMILES>
CC1=CC=C(C=C1)OCC(CNCC2=CC=C(C=C2)F)O

> <PUBCHEM_OPENEYE_ISO_SMILES>
CC1=CC=C(C=C1)OCC(CNCC2=CC=C(C=C2)F)O

> <PUBCHEM_TOTAL_CHARGE>
0

> <PUBCHEM_XLOGP3_AA>
2.8

$$$$
Largest isolated from Written by BCL::WriteToMDL,2827417
JMcorina  04211410293D 1   1.00000     0.00000 
CORINA 3.49 0026  01.06.2011
 56 57  0  0  0  0  0  0  0  0999 V2000
   -3.0203   -0.4297   -0.4910 O   0  0  0  1  0  0  0  0  0  0  0  0
   -6.6429   -0.6895    2.5817 O   0  0  0  1  0  0  0  0  0  0  0  0
   -1.5825   -0.2635    2.0181 N   0  0  0  1  0  0  0  0  0  0  0  0
   -4.4178   -2.3857    3.1999 N   0  0  0  1  0  0  0  0  0  0  0  0
   -2.9818   -0.6351    2.2671 C   0  0  0  1  0  0  0  0  0  0  0  0
   -3.0427   -2.0718    2.7896 C   0  0  0  1  0  0  0  0  0  0  0  0
   -1.0608   -0.9454    0.8262 C   0  0  0  1  0  0  0  0  0  0  0  0
   -5.2787   -2.6067    2.0302 C   0  0  0  1  0  0  0  0  0  0  0  0
   -1.4383    1.1933    1.8966 C   0  0  0  1  0  0  0  0  0  0  0  0
   -4.4466   -3.5453    4.1012 C   0  0  0  1  0  0  0  0  0  0  0  0
    0.0107    1.5707    2.0673 C   0  0  0  1  0  0  0  0  0  0  0  0
   -5.8321   -3.7033    4.6726 C   0  0  0  1  0  0  0  0  0  0  0  0
   -1.6025   -0.2616   -0.4307 C   0  0  0  1  0  0  0  0  0  0  0  0
   -5.8403   -1.2670    1.5500 C   0  0  0  1  0  0  0  0  0  0  0  0
    0.4097   -0.8779    0.8265 C   0  0  0  1  0  0  0  0  0  0  0  0
   -4.4910   -3.2238    0.9507 C   0  0  0  1  0  0  0  0  0  0  0  0
   -6.7253   -4.5809    4.0870 C   0  0  0  1  0  0  0  0  0  0  0  0
    0.8063    1.7786    0.9561 C   0  0  0  1  0  0  0  0  0  0  0  0
   -6.2080   -2.9747    5.7856 C   0  0  0  1  0  0  0  0  0  0  0  0
    0.5427    1.7145    3.3350 C   0  0  0  1  0  0  0  0  0  0  0  0
    2.1354    2.1247    1.1127 C   0  0  0  1  0  0  0  0  0  0  0  0
   -7.9962   -4.7258    4.6110 C   0  0  0  1  0  0  0  0  0  0  0  0
    1.8718    2.0606    3.4916 C   0  0  0  1  0  0  0  0  0  0  0  0
   -7.4789   -3.1196    6.3096 C   0  0  0  1  0  0  0  0  0  0  0  0
    2.6688    2.2634    2.3804 C   0  0  0  1  0  0  0  0  0  0  0  0
   -8.3738   -3.9934    5.7209 C   0  0  0  1  0  0  0  0  0  0  0  0
    1.5824   -0.8240    0.8267 C   0  0  0  1  0  0  0  0  0  0  0  0
   -3.8627   -3.7160    0.0898 C   0  0  0  1  0  0  0  0  0  0  0  0
   -3.4105    0.0395    3.0081 H   0  0  0  1  0  0  0  0  0  0  0  0
   -3.5478   -0.5619    1.3385 H   0  0  0  1  0  0  0  0  0  0  0  0
   -2.3755   -2.1759    3.6452 H   0  0  0  1  0  0  0  0  0  0  0  0
   -2.7329   -2.7584    2.0017 H   0  0  0  1  0  0  0  0  0  0  0  0
   -1.3766   -1.9886    0.8370 H   0  0  0  1  0  0  0  0  0  0  0  0
   -6.1008   -3.2681    2.3039 H   0  0  0  1  0  0  0  0  0  0  0  0
   -4.1779   -4.4439    3.5459 H   0  0  0  1  0  0  0  0  0  0  0  0
   -3.7344   -3.3929    4.9122 H   0  0  0  1  0  0  0  0  0  0  0  0
   -1.7833    1.5118    0.9129 H   0  0  0  1  0  0  0  0  0  0  0  0
   -2.0344    1.6829    2.6667 H   0  0  0  1  0  0  0  0  0  0  0  0
   -1.1457   -0.7091   -1.3134 H   0  0  0  1  0  0  0  0  0  0  0  0
   -1.3638    0.8015   -0.3975 H   0  0  0  1  0  0  0  0  0  0  0  0
   -6.4508   -1.4266    0.6612 H   0  0  0  1  0  0  0  0  0  0  0  0
   -5.0178   -0.5934    1.3096 H   0  0  0  1  0  0  0  0  0  0  0  0
    0.3895    1.6703   -0.0343 H   0  0  0  1  0  0  0  0  0  0  0  0
   -6.4302   -5.1531    3.2198 H   0  0  0  1  0  0  0  0  0  0  0  0
   -0.0801    1.5567    4.2031 H   0  0  0  1  0  0  0  0  0  0  0  0
   -5.5086   -2.2926    6.2459 H   0  0  0  1  0  0  0  0  0  0  0  0
   -3.4417    0.0431   -1.2217 H   0  0  0  1  0  0  0  0  0  0  0  0
   -7.0936    0.1250    2.3200 H   0  0  0  1  0  0  0  0  0  0  0  0
    2.7571    2.2865    0.2445 H   0  0  0  1  0  0  0  0  0  0  0  0
   -8.6943   -5.4109    4.1530 H   0  0  0  1  0  0  0  0  0  0  0  0
    2.2875    2.1733    4.4820 H   0  0  0  1  0  0  0  0  0  0  0  0
   -7.7725   -2.5507    7.1794 H   0  0  0  1  0  0  0  0  0  0  0  0
    3.7073    2.5334    2.5027 H   0  0  0  1  0  0  0  0  0  0  0  0
   -9.3669   -4.1063    6.1301 H   0  0  0  1  0  0  0  0  0  0  0  0
    2.6313   -0.7758    0.8269 H   0  0  0  1  0  0  0  0  0  0  0  0
   -3.3008   -4.1562   -0.6803 H   0  0  0  1  0  0  0  0  0  0  0  0
  1 13  1  0  0  0  0
  1 47  1  0  0  0  0
  2 14  1  0  0  0  0
  2 48  1  0  0  0  0
  3  5  1  0  0  0  0
  3  7  1  0  0  0  0
  3  9  1  0  0  0  0
  4  6  1  0  0  0  0
  4  8  1  0  0  0  0
  4 10  1  0  0  0  0
  5  6  1  0  0  0  0
  5 29  1  0  0  0  0
  5 30  1  0  0  0  0
  6 31  1  0  0  0  0
  6 32  1  0  0  0  0
  7 13  1  0  0  0  0
  7 15  1  0  0  0  0
  7 33  1  0  0  0  0
  8 14  1  0  0  0  0
  8 16  1  0  0  0  0
  8 34  1  0  0  0  0
  9 11  1  0  0  0  0
  9 37  1  0  0  0  0
  9 38  1  0  0  0  0
 10 12  1  0  0  0  0
 10 35  1  0  0  0  0
 10 36  1  0  0  0  0
 11 18  4  0  0  0  0
 11 20  4  0  0  0  0
 12 17  4  0  0  0  0
 12 19  4  0  0  0  0
 13 39  1  0  0  0  0
 13 40  1  0  0  0  0
 14 41  1  0  0  0  0
 14 42  1  0  0  0  0
 15 27  3  0  0  0  0
 16 28  3  0  0  0  0
 17 22  4  0  0  0  0
 17 44  1  0  0  0  0
 18 21  4  0  0  0  0
 18 43  1  0  0  0  0
 19 24  4  0  0  0  0
 19 46  1  0  0  0  0
 20 23  4  0  0  0  0
 20 45  1  0  0  0  0
 21 25  4  0  0  0  0
 21 49  1  0  0  0  0
 22 26  4  0  0  0  0
 22 50  1  0  0  0  0
 23 25  4  0  0  0  0
 23 51  1  0  0  0  0
 24 26  4  0  0  0  0
 24 52  1  0  0  0  0
 25 53  1  0  0  0  0
 26 54  1  0  0  0  0
 27 55  1  0  0  0  0
 28 56  1  0  0  0  0
M  END
> <Activity>
0.01

> <Mapped(file=2032.csv.activities,property=Cached(PUBCHEM_COMPOUND_CID))>
100

> <MatchIndices>
214 

> <PUBCHEM_ATOM_DEF_STEREO_COUNT>
0

> <PUBCHEM_ATOM_UDEF_STEREO_COUNT>
2

> <PUBCHEM_BONDANNOTATIONS>
11  18  8
11  20  8
12  17  8
12  19  8
17  22  8
18  21  8
19  24  8
20  23  8
21  25  8
22  26  8
23  25  8
24  26  8
7  33  3
8  34  3

> <PUBCHEM_BOND_DEF_STEREO_COUNT>
0

> <PUBCHEM_BOND_UDEF_STEREO_COUNT>
0

> <PUBCHEM_CACTVS_COMPLEXITY>
471

> <PUBCHEM_CACTVS_HBOND_ACCEPTOR>
4

> <PUBCHEM_CACTVS_HBOND_DONOR>
2

> <PUBCHEM_CACTVS_ROTATABLE_BOND>
11

> <PUBCHEM_CACTVS_SUBSKEYS>
AAADceB7MAAAAAAAAAAAAAAAAAAAAAAAAAAwYAAAAAAAAAABQAAAHgAACAAADCjhmAYwAIMAAgDAGiBCAAiCAAAgAAAIiAAIBIgKcCKAkRGUYAhggACYiAcQgAAOAAAAAAAAAAAAAAAAAAAAAAAAAAAAAA==

> <PUBCHEM_CACTVS_TAUTO_COUNT>
1

> <PUBCHEM_CACTVS_TPSA>
46.9

> <PUBCHEM_COMPONENT_COUNT>
1

> <PUBCHEM_COMPOUND_CANONICALIZED>
1

> <PUBCHEM_COMPOUND_CID>
2827417

> <PUBCHEM_COORDINATE_TYPE>
1
5
255

> <PUBCHEM_EXACT_MASS>
376.215078

> <PUBCHEM_HEAVY_ATOM_COUNT>
28

> <PUBCHEM_ISOTOPIC_ATOM_COUNT>
0

> <PUBCHEM_IUPAC_CAS_NAME>
2-[2-[1-hydroxybut-3-yn-2-yl-(phenylmethyl)amino]ethyl-(phenylmethyl)amino]-3-butyn-1-ol

> <PUBCHEM_IUPAC_INCHI>
InChI=1S/C24H28N2O2/c1-3-23(19-27)25(17-21-11-7-5-8-12-21)15-16-26(24(4-2)20-28)18-22-13-9-6-10-14-22/h1-2,5-14,23-24,27-28H,15-20H2

> <PUBCHEM_IUPAC_INCHIKEY>
SYZUQSPEEKTLNH-UHFFFAOYSA-N

> <PUBCHEM_IUPAC_NAME>
2-[benzyl-[2-[benzyl(1-hydroxybut-3-yn-2-yl)amino]ethyl]amino]but-3-yn-1-ol

> <PUBCHEM_IUPAC_OPENEYE_NAME>
2-[benzyl-[2-[benzyl-[1-(hydroxymethyl)prop-2-ynyl]amino]ethyl]amino]but-3-yn-1-ol

> <PUBCHEM_IUPAC_SYSTEMATIC_NAME>
2-[2-[1-oxidanylbut-3-yn-2-yl-(phenylmethyl)amino]ethyl-(phenylmethyl)amino]but-3-yn-1-ol

> <PUBCHEM_IUPAC_TRADITIONAL_NAME>
2-[benzyl-[2-[benzyl(1-methylolprop-2-ynyl)amino]ethyl]amino]but-3-yn-1-ol

> <PUBCHEM_MOLECULAR_FORMULA>
C24H28N2O2

> <PUBCHEM_MOLECULAR_WEIGHT>
376.49132

> <PUBCHEM_MONOISOTOPIC_WEIGHT>
376.215078

> <PUBCHEM_OPENEYE_CAN_SMILES>
C#CC(CO)N(CCN(CC1=CC=CC=C1)C(CO)C#C)CC2=CC=CC=C2

> <PUBCHEM_OPENEYE_ISO_SMILES>
C#CC(CO)N(CCN(CC1=CC=CC=C1)C(CO)C#C)CC2=CC=CC=C2

> <PUBCHEM_TOTAL_CHARGE>
0

> <PUBCHEM_XLOGP3_AA>
2.2

$$$$
Largest isolated from Written by BCL::WriteToMDL,2846545
JMcorina  04211410293D 1   1.00000     0.00000 
CORINA 3.49 0026  01.06.2011
 44 46  0  0  0  0  0  0  0  0999 V2000
   -0.0164    1.3548    0.0095 O   0  0  0  1  0  0  0  0  0  0  0  0
    0.0728   -6.2486   -1.4737 N   0  0  0  1  0  0  0  0  0  0  0  0
    0.0666   -6.7680   -2.8477 C   0  0  0  1  0  0  0  0  0  0  0  0
    0.6956   -8.1661   -2.8742 C   0  0  0  1  0  0  0  0  0  0  0  0
   -1.3717   -6.8777   -3.3498 C   0  0  0  1  0  0  0  0  0  0  0  0
    0.8956   -8.5769   -4.3316 C   0  0  0  1  0  0  0  0  0  0  0  0
   -1.4191   -7.6126   -4.6638 C   0  0  0  1  0  0  0  0  0  0  0  0
   -0.3795   -8.3961   -5.1128 C   0  0  0  1  0  0  0  0  0  0  0  0
    0.0529   -4.7797   -1.4661 C   0  0  0  1  0  0  0  0  0  0  0  0
   -2.5655   -7.4820   -5.4366 C   0  0  0  1  0  0  0  0  0  0  0  0
   -0.4899   -9.0528   -6.3314 C   0  0  0  1  0  0  0  0  0  0  0  0
    0.0600   -4.2770   -0.0210 C   0  0  0  1  0  0  0  0  0  0  0  0
   -2.6726   -8.1340   -6.6479 C   0  0  0  1  0  0  0  0  0  0  0  0
   -1.6304   -8.9231   -7.0970 C   0  0  0  1  0  0  0  0  0  0  0  0
    0.0396   -2.7702   -0.0132 C   0  0  0  1  0  0  0  0  0  0  0  0
   -1.1677   -2.0964    0.0019 C   0  0  0  1  0  0  0  0  0  0  0  0
    1.2282   -2.0638   -0.0155 C   0  0  0  1  0  0  0  0  0  0  0  0
   -1.1891   -0.7152    0.0096 C   0  0  0  1  0  0  0  0  0  0  0  0
    1.2122   -0.6825   -0.0079 C   0  0  0  1  0  0  0  0  0  0  0  0
    0.0021   -0.0041    0.0020 C   0  0  0  1  0  0  0  0  0  0  0  0
    1.2479    2.0208    0.0010 C   0  0  0  1  0  0  0  0  0  0  0  0
    0.6323   -6.0986   -3.4958 H   0  0  0  1  0  0  0  0  0  0  0  0
    1.6582   -8.1453   -2.3632 H   0  0  0  1  0  0  0  0  0  0  0  0
    0.0325   -8.8764   -2.3803 H   0  0  0  1  0  0  0  0  0  0  0  0
   -1.9689   -7.4171   -2.6146 H   0  0  0  1  0  0  0  0  0  0  0  0
   -1.7835   -5.8772   -3.4824 H   0  0  0  1  0  0  0  0  0  0  0  0
    1.6787   -7.9613   -4.7742 H   0  0  0  1  0  0  0  0  0  0  0  0
    1.1964   -9.6238   -4.3718 H   0  0  0  1  0  0  0  0  0  0  0  0
   -0.6984   -6.6234   -0.9419 H   0  0  0  1  0  0  0  0  0  0  0  0
    0.9328   -4.4017   -1.9866 H   0  0  0  1  0  0  0  0  0  0  0  0
   -0.8469   -4.4259   -1.9694 H   0  0  0  1  0  0  0  0  0  0  0  0
   -3.3800   -6.8653   -5.0865 H   0  0  0  1  0  0  0  0  0  0  0  0
    0.3237   -9.6699   -6.6829 H   0  0  0  1  0  0  0  0  0  0  0  0
   -0.8199   -4.6550    0.4995 H   0  0  0  1  0  0  0  0  0  0  0  0
    0.9598   -4.6308    0.4823 H   0  0  0  1  0  0  0  0  0  0  0  0
   -3.5675   -8.0279   -7.2431 H   0  0  0  1  0  0  0  0  0  0  0  0
   -1.7090   -9.4373   -8.0435 H   0  0  0  1  0  0  0  0  0  0  0  0
   -2.0947   -2.6504    0.0075 H   0  0  0  1  0  0  0  0  0  0  0  0
    2.1700   -2.5924   -0.0228 H   0  0  0  1  0  0  0  0  0  0  0  0
   -2.1324   -0.1893    0.0210 H   0  0  0  1  0  0  0  0  0  0  0  0
    2.1409   -0.1312   -0.0093 H   0  0  0  1  0  0  0  0  0  0  0  0
    1.0905    3.0993    0.0083 H   0  0  0  1  0  0  0  0  0  0  0  0
    1.8173    1.7308    0.8840 H   0  0  0  1  0  0  0  0  0  0  0  0
    1.8003    1.7403   -0.8958 H   0  0  0  1  0  0  0  0  0  0  0  0
  1 20  1  0  0  0  0
  1 21  1  0  0  0  0
  2  3  1  0  0  0  0
  2  9  1  0  0  0  0
  2 29  1  0  0  0  0
  3  4  1  0  0  0  0
  3  5  1  0  0  0  0
  3 22  1  0  0  0  0
  4  6  1  0  0  0  0
  4 23  1  0  0  0  0
  4 24  1  0  0  0  0
  5  7  1  0  0  0  0
  5 25  1  0  0  0  0
  5 26  1  0  0  0  0
  6  8  1  0  0  0  0
  6 27  1  0  0  0  0
  6 28  1  0  0  0  0
  7  8  4  0  0  0  0
  7 10  4  0  0  0  0
  8 11  4  0  0  0  0
  9 12  1  0  0  0  0
  9 30  1  0  0  0  0
  9 31  1  0  0  0  0
 10 13  4  0  0  0  0
 10 32  1  0  0  0  0
 11 14  4  0  0  0  0
 11 33  1  0  0  0  0
 12 15  1  0  0  0  0
 12 34  1  0  0  0  0
 12 35  1  0  0  0  0
 13 14  4  0  0  0  0
 13 36  1  0  0  0  0
 14 37  1  0  0  0  0
 15 16  4  0  0  0  0
 15 17  4  0  0  0  0
 16 18  4  0  0  0  0
 16 38  1  0  0  0  0
 17 19  4  0  0  0  0
 17 39  1  0  0  0  0
 18 20  4  0  0  0  0
 18 40  1  0  0  0  0
 19 20  4  0  0  0  0
 19 41  1  0  0  0  0
 21 42  1  0  0  0  0
 21 43  1  0  0  0  0
 21 44  1  0  0  0  0
M  END
> <Activity>
0.01

> <Mapped(file=2032.csv.activities,property=Cached(PUBCHEM_COMPOUND_CID))>
100

> <MatchIndices>
94 

> <PUBCHEM_ATOM_DEF_STEREO_COUNT>
0

> <PUBCHEM_ATOM_UDEF_STEREO_COUNT>
1

> <PUBCHEM_BONDANNOTATIONS>
10  13  8
11  14  8
13  14  8
15  16  8
15  17  8
16  18  8
17  19  8
18  20  8
19  20  8
3  2  3
7  10  8
7  8  8
8  11  8

> <PUBCHEM_BOND_DEF_STEREO_COUNT>
0

> <PUBCHEM_BOND_UDEF_STEREO_COUNT>
0

> <PUBCHEM_CACTVS_COMPLEXITY>
298

> <PUBCHEM_CACTVS_HBOND_ACCEPTOR>
2

> <PUBCHEM_CACTVS_HBOND_DONOR>
1

> <PUBCHEM_CACTVS_ROTATABLE_BOND>
5

> <PUBCHEM_CACTVS_SUBSKEYS>
AAADceB6IAAAAAAAAAAAAAAAAAAAAAAAAAAwYMAAAAAAAADBQAAAHgAQAAAADCzBmAYyBoLABACAAiBCAAACCAAgIAAIiIAOCIgMJiKEsRuEMCAk0BGIqAeQwIAOoAAAAAAQAABQAACAACAAAAAAAAAAAA==

> <PUBCHEM_CACTVS_TAUTO_COUNT>
1

> <PUBCHEM_CACTVS_TPSA>
21.3

> <PUBCHEM_COMPONENT_COUNT>
1

> <PUBCHEM_COMPOUND_CANONICALIZED>
1

> <PUBCHEM_COMPOUND_CID>
2846545

> <PUBCHEM_COORDINATE_TYPE>
1
5
255

> <PUBCHEM_EXACT_MASS>
281.177964

> <PUBCHEM_HEAVY_ATOM_COUNT>
21

> <PUBCHEM_ISOTOPIC_ATOM_COUNT>
0

> <PUBCHEM_IUPAC_CAS_NAME>
N-[2-(4-methoxyphenyl)ethyl]-1,2,3,4-tetrahydronaphthalen-2-amine

> <PUBCHEM_IUPAC_INCHI>
InChI=1S/C19H23NO/c1-21-19-10-6-15(7-11-19)12-13-20-18-9-8-16-4-2-3-5-17(16)14-18/h2-7,10-11,18,20H,8-9,12-14H2,1H3

> <PUBCHEM_IUPAC_INCHIKEY>
UIAIHSBNAKWFOI-UHFFFAOYSA-N

> <PUBCHEM_IUPAC_NAME>
N-[2-(4-methoxyphenyl)ethyl]-1,2,3,4-tetrahydronaphthalen-2-amine

> <PUBCHEM_IUPAC_OPENEYE_NAME>
N-[2-(4-methoxyphenyl)ethyl]tetralin-2-amine

> <PUBCHEM_IUPAC_SYSTEMATIC_NAME>
N-[2-(4-methoxyphenyl)ethyl]-1,2,3,4-tetrahydronaphthalen-2-amine

> <PUBCHEM_IUPAC_TRADITIONAL_NAME>
2-(4-methoxyphenyl)ethyl-tetralin-2-yl-amine

> <PUBCHEM_MOLECULAR_FORMULA>
C19H23NO

> <PUBCHEM_MOLECULAR_WEIGHT>
281.39202

> <PUBCHEM_MONOISOTOPIC_WEIGHT>
281.177964

> <PUBCHEM_OPENEYE_CAN_SMILES>
COC1=CC=C(C=C1)CCNC2CCC3=CC=CC=C3C2

> <PUBCHEM_OPENEYE_ISO_SMILES>
COC1=CC=C(C=C1)CCNC2CCC3=CC=CC=C3C2

> <PUBCHEM_TOTAL_CHARGE>
0

> <PUBCHEM_XLOGP3>
4.3

$$$$
Largest isolated from Written by BCL::WriteToMDL,2942461
JMcorina  04211410293D 1   1.00000     0.00000 
CORINA 3.49 0026  01.06.2011
 30 31  0  0  0  0  0  0  0  0999 V2000
   -2.6086    4.0286    4.8788 Br  0  0  0  1  0  0  0  0  0  0  0  0
   -0.0172    1.4168    0.0098 S   0  0  0  1  0  0  0  0  0  0  0  0
   -0.7882    3.4423    2.2622 S   0  0  0  1  0  0  0  0  0  0  0  0
    0.0021   -0.0041    0.0020 O   0  0  0  1  0  0  0  0  0  0  0  0
    1.1617    2.2101    0.0028 O   0  0  0  1  0  0  0  0  0  0  0  0
   -0.9002    1.8797   -1.3124 N   0  0  0  1  0  0  0  0  0  0  0  0
   -1.1366    3.3017   -1.5741 C   0  0  0  1  0  0  0  0  0  0  0  0
   -1.1436    3.5444   -3.0614 C   0  0  0  1  0  0  0  0  0  0  0  0
   -2.4877    3.7111   -0.9842 C   0  0  0  1  0  0  0  0  0  0  0  0
   -0.9297    1.8941    1.4396 C   0  0  0  1  0  0  0  0  0  0  0  0
   -0.5439    4.6769   -3.5797 C   0  0  0  1  0  0  0  0  0  0  0  0
   -1.7448    2.6317   -3.9078 C   0  0  0  1  0  0  0  0  0  0  0  0
   -1.8333    1.1369    2.0629 C   0  0  0  1  0  0  0  0  0  0  0  0
   -0.5503    4.8995   -4.9440 C   0  0  0  1  0  0  0  0  0  0  0  0
   -1.7511    2.8543   -5.2721 C   0  0  0  1  0  0  0  0  0  0  0  0
   -1.1561    3.9894   -5.7900 C   0  0  0  1  0  0  0  0  0  0  0  0
   -2.4247    1.7247    3.1682 C   0  0  0  1  0  0  0  0  0  0  0  0
   -2.0004    2.9603    3.4419 C   0  0  0  1  0  0  0  0  0  0  0  0
   -0.3449    3.8924   -1.1132 H   0  0  0  1  0  0  0  0  0  0  0  0
   -1.2609    1.2094   -1.9136 H   0  0  0  1  0  0  0  0  0  0  0  0
   -3.2793    3.1203   -1.4450 H   0  0  0  1  0  0  0  0  0  0  0  0
   -2.4826    3.5355    0.0916 H   0  0  0  1  0  0  0  0  0  0  0  0
   -2.6636    4.7690   -1.1789 H   0  0  0  1  0  0  0  0  0  0  0  0
   -0.0706    5.3879   -2.9187 H   0  0  0  1  0  0  0  0  0  0  0  0
   -2.2091    1.7445   -3.5032 H   0  0  0  1  0  0  0  0  0  0  0  0
   -2.0851    0.1407    1.7304 H   0  0  0  1  0  0  0  0  0  0  0  0
   -0.0824    5.7847   -5.3489 H   0  0  0  1  0  0  0  0  0  0  0  0
   -2.2205    2.1410   -5.9334 H   0  0  0  1  0  0  0  0  0  0  0  0
   -1.1614    4.1636   -6.8558 H   0  0  0  1  0  0  0  0  0  0  0  0
   -3.1727    1.2220    3.7633 H   0  0  0  1  0  0  0  0  0  0  0  0
  1 18  1  0  0  0  0
  2  4  2  0  0  0  0
  2  5  2  0  0  0  0
  2  6  1  0  0  0  0
  2 10  1  0  0  0  0
  3 10  4  0  0  0  0
  3 18  4  0  0  0  0
  6  7  1  0  0  0  0
  6 20  1  0  0  0  0
  7  8  1  0  0  0  0
  7  9  1  0  0  0  0
  7 19  1  0  0  0  0
  8 11  4  0  0  0  0
  8 12  4  0  0  0  0
  9 21  1  0  0  0  0
  9 22  1  0  0  0  0
  9 23  1  0  0  0  0
 10 13  4  0  0  0  0
 11 14  4  0  0  0  0
 11 24  1  0  0  0  0
 12 15  4  0  0  0  0
 12 25  1  0  0  0  0
 13 17  4  0  0  0  0
 13 26  1  0  0  0  0
 14 16  4  0  0  0  0
 14 27  1  0  0  0  0
 15 16  4  0  0  0  0
 15 28  1  0  0  0  0
 16 29  1  0  0  0  0
 17 18  4  0  0  0  0
 17 30  1  0  0  0  0
M  END
> <Activity>
0.01

> <Mapped(file=2032.csv.activities,property=Cached(PUBCHEM_COMPOUND_CID))>
100

> <MatchIndices>
73 

> <PUBCHEM_ATOM_DEF_STEREO_COUNT>
0

> <PUBCHEM_ATOM_UDEF_STEREO_COUNT>
1

> <PUBCHEM_BONDANNOTATIONS>
10  13  8
11  14  8
12  15  8
13  17  8
14  16  8
15  16  8
17  18  8
3  10  8
3  18  8
7  9  3
8  11  8
8  12  8

> <PUBCHEM_BOND_DEF_STEREO_COUNT>
0

> <PUBCHEM_BOND_UDEF_STEREO_COUNT>
0

> <PUBCHEM_CACTVS_COMPLEXITY>
363

> <PUBCHEM_CACTVS_HBOND_ACCEPTOR>
4

> <PUBCHEM_CACTVS_HBOND_DONOR>
1

> <PUBCHEM_CACTVS_ROTATABLE_BOND>
4

> <PUBCHEM_CACTVS_SUBSKEYS>
AAADccByMABgEAAAAAAAAAAAAAAAASAAAAAwAAAAAAAAAAABwAAAHARQQAABLCjBWAQyAYBAAAqEAiBCAHDDAZAgCBRIiJgABKgIICKgkRGAIABgkAAoihcQgIAOAAAAAAAAAAAAAAAAAAAAAAAAAAAAAA==

> <PUBCHEM_CACTVS_TAUTO_COUNT>
1

> <PUBCHEM_CACTVS_TPSA>
82.8

> <PUBCHEM_COMPONENT_COUNT>
1

> <PUBCHEM_COMPOUND_CANONICALIZED>
1

> <PUBCHEM_COMPOUND_CID>
2942461

> <PUBCHEM_COORDINATE_TYPE>
1
5
255

> <PUBCHEM_EXACT_MASS>
344.949283

> <PUBCHEM_HEAVY_ATOM_COUNT>
18

> <PUBCHEM_ISOTOPIC_ATOM_COUNT>
0

> <PUBCHEM_IUPAC_CAS_NAME>
5-bromo-N-(1-phenylethyl)-2-thiophenesulfonamide

> <PUBCHEM_IUPAC_INCHI>
InChI=1S/C12H12BrNO2S2/c1-9(10-5-3-2-4-6-10)14-18(15,16)12-8-7-11(13)17-12/h2-9,14H,1H3

> <PUBCHEM_IUPAC_INCHIKEY>
NURPASYGVRKHGU-UHFFFAOYSA-N

> <PUBCHEM_IUPAC_NAME>
5-bromo-N-(1-phenylethyl)thiophene-2-sulfonamide

> <PUBCHEM_IUPAC_OPENEYE_NAME>
5-bromo-N-(1-phenylethyl)thiophene-2-sulfonamide

> <PUBCHEM_IUPAC_SYSTEMATIC_NAME>
5-bromanyl-N-(1-phenylethyl)thiophene-2-sulfonamide

> <PUBCHEM_IUPAC_TRADITIONAL_NAME>
5-bromo-N-(1-phenylethyl)thiophene-2-sulfonamide

> <PUBCHEM_MOLECULAR_FORMULA>
C12H12BrNO2S2

> <PUBCHEM_MOLECULAR_WEIGHT>
346.26318

> <PUBCHEM_MONOISOTOPIC_WEIGHT>
344.949283

> <PUBCHEM_OPENEYE_CAN_SMILES>
CC(C1=CC=CC=C1)NS(=O)(=O)C2=CC=C(S2)Br

> <PUBCHEM_OPENEYE_ISO_SMILES>
CC(C1=CC=CC=C1)NS(=O)(=O)C2=CC=C(S2)Br

> <PUBCHEM_TOTAL_CHARGE>
0

> <PUBCHEM_XLOGP3_AA>
3.8

$$$$
Largest isolated from Written by BCL::WriteToMDL,3144932
JMcorina  04211410293D 1   1.00000     0.00000 
CORINA 3.49 0026  01.06.2011
 41 44  0  0  0  0  0  0  0  0999 V2000
    1.5574    3.5323    0.0062 S   0  0  0  1  0  0  0  0  0  0  0  0
   -0.9541   -0.7495    0.0077 O   0  0  0  1  0  0  0  0  0  0  0  0
   -0.0162    1.3435    0.0094 N   0  0  0  1  0  0  0  0  0  0  0  0
    2.1697    0.9006   -0.0138 N   0  0  0  1  0  0  0  0  0  0  0  0
    5.1459   -2.7369    0.8430 N   0  0  0  1  0  0  0  0  0  0  0  0
    1.4668   -0.3940   -0.0141 C   0  0  0  1  0  0  0  0  0  0  0  0
    1.8230   -1.2001    1.2366 C   0  0  0  1  0  0  0  0  0  0  0  0
    3.2787   -1.5870    1.1871 C   0  0  0  1  0  0  0  0  0  0  0  0
    0.0021   -0.0041    0.0020 C   0  0  0  1  0  0  0  0  0  0  0  0
    4.4127   -0.7707    1.6273 C   0  0  0  1  0  0  0  0  0  0  0  0
    1.2205    1.8538    0.0004 C   0  0  0  1  0  0  0  0  0  0  0  0
   -1.2392    2.1499    0.0198 C   0  0  0  1  0  0  0  0  0  0  0  0
    5.5639   -1.5434    1.3878 C   0  0  0  1  0  0  0  0  0  0  0  0
    3.7821   -2.7447    0.7310 C   0  0  0  1  0  0  0  0  0  0  0  0
   -1.6517    2.4187    1.4441 C   0  0  0  1  0  0  0  0  0  0  0  0
    4.5327    0.5039    2.1836 C   0  0  0  1  0  0  0  0  0  0  0  0
    6.8129   -1.0231    1.7098 C   0  0  0  1  0  0  0  0  0  0  0  0
    5.7699    0.9956    2.4924 C   0  0  0  1  0  0  0  0  0  0  0  0
    6.9085    0.2377    2.2573 C   0  0  0  1  0  0  0  0  0  0  0  0
   -1.1818    3.5414    2.0996 C   0  0  0  1  0  0  0  0  0  0  0  0
   -2.5044    1.5455    2.0932 C   0  0  0  1  0  0  0  0  0  0  0  0
   -1.5601    3.7879    3.4061 C   0  0  0  1  0  0  0  0  0  0  0  0
   -2.8827    1.7920    3.3997 C   0  0  0  1  0  0  0  0  0  0  0  0
   -2.4087    2.9120    4.0570 C   0  0  0  1  0  0  0  0  0  0  0  0
    1.7056   -0.9598   -0.9146 H   0  0  0  1  0  0  0  0  0  0  0  0
    1.6379   -0.5948    2.1240 H   0  0  0  1  0  0  0  0  0  0  0  0
    1.2091   -2.0999    1.2759 H   0  0  0  1  0  0  0  0  0  0  0  0
    3.1298    1.0389   -0.0218 H   0  0  0  1  0  0  0  0  0  0  0  0
   -1.0551    3.0957   -0.4898 H   0  0  0  1  0  0  0  0  0  0  0  0
   -2.0350    1.6097   -0.4931 H   0  0  0  1  0  0  0  0  0  0  0  0
    3.1974   -3.5615    0.3344 H   0  0  0  1  0  0  0  0  0  0  0  0
    5.7312   -3.4623    0.5746 H   0  0  0  1  0  0  0  0  0  0  0  0
    3.6511    1.0998    2.3683 H   0  0  0  1  0  0  0  0  0  0  0  0
    7.7048   -1.6055    1.5316 H   0  0  0  1  0  0  0  0  0  0  0  0
    5.8622    1.9818    2.9228 H   0  0  0  1  0  0  0  0  0  0  0  0
    7.8793    0.6399    2.5070 H   0  0  0  1  0  0  0  0  0  0  0  0
   -0.5189    4.2257    1.5910 H   0  0  0  1  0  0  0  0  0  0  0  0
   -2.8752    0.6709    1.5795 H   0  0  0  1  0  0  0  0  0  0  0  0
   -1.1925    4.6647    3.9184 H   0  0  0  1  0  0  0  0  0  0  0  0
   -3.5492    1.1100    3.9068 H   0  0  0  1  0  0  0  0  0  0  0  0
   -2.7039    3.1044    5.0778 H   0  0  0  1  0  0  0  0  0  0  0  0
  1 11  2  0  0  0  0
  2  9  2  0  0  0  0
  3  9  1  0  0  0  0
  3 11  1  0  0  0  0
  3 12  1  0  0  0  0
  4  6  1  0  0  0  0
  4 11  1  0  0  0  0
  4 28  1  0  0  0  0
  5 13  4  0  0  0  0
  5 14  4  0  0  0  0
  5 32  1  0  0  0  0
  6  7  1  0  0  0  0
  6  9  1  0  0  0  0
  6 25  1  0  0  0  0
  7  8  1  0  0  0  0
  7 26  1  0  0  0  0
  7 27  1  0  0  0  0
  8 10  4  0  0  0  0
  8 14  4  0  0  0  0
 10 13  4  0  0  0  0
 10 16  4  0  0  0  0
 12 15  1  0  0  0  0
 12 29  1  0  0  0  0
 12 30  1  0  0  0  0
 13 17  4  0  0  0  0
 14 31  1  0  0  0  0
 15 20  4  0  0  0  0
 15 21  4  0  0  0  0
 16 18  4  0  0  0  0
 16 33  1  0  0  0  0
 17 19  4  0  0  0  0
 17 34  1  0  0  0  0
 18 19  4  0  0  0  0
 18 35  1  0  0  0  0
 19 36  1  0  0  0  0
 20 22  4  0  0  0  0
 20 37  1  0  0  0  0
 21 23  4  0  0  0  0
 21 38  1  0  0  0  0
 22 24  4  0  0  0  0
 22 39  1  0  0  0  0
 23 24  4  0  0  0  0
 23 40  1  0  0  0  0
 24 41  1  0  0  0  0
M  END
> <Activity>
0.01

> <Mapped(file=2032.csv.activities,property=Cached(PUBCHEM_COMPOUND_CID))>
100

> <MatchIndices>
177 

> <PUBCHEM_ATOM_DEF_STEREO_COUNT>
0

> <PUBCHEM_ATOM_UDEF_STEREO_COUNT>
1

> <PUBCHEM_BONDANNOTATIONS>
10  13  8
10  16  8
13  17  8
15  20  8
15  21  8
16  18  8
17  19  8
18  19  8
20  22  8
21  23  8
22  24  8
23  24  8
5  13  8
5  14  8
6  7  3
8  10  8
8  14  8

> <PUBCHEM_BOND_DEF_STEREO_COUNT>
0

> <PUBCHEM_BOND_UDEF_STEREO_COUNT>
0

> <PUBCHEM_CACTVS_COMPLEXITY>
491

> <PUBCHEM_CACTVS_HBOND_ACCEPTOR>
2

> <PUBCHEM_CACTVS_HBOND_DONOR>
2

> <PUBCHEM_CACTVS_ROTATABLE_BOND>
4

> <PUBCHEM_CACTVS_SUBSKEYS>
AAADceB7IABAAAAAAAAAAAAAAAAAAWLAAAAwYAAAAAAAAFgB9AAAHgQQAAAADCjBngQ9wPPJkACsAzV3VACCgCAxAikI2aG4ZJiIYPLAkbGUIAholwLIyAcYicCOgAAAAAACAAAAAAAAAAQAAAAAAAAAAA==

> <PUBCHEM_CACTVS_TAUTO_COUNT>
4

> <PUBCHEM_CACTVS_TPSA>
80.2

> <PUBCHEM_COMPONENT_COUNT>
1

> <PUBCHEM_COMPOUND_CANONICALIZED>
1

> <PUBCHEM_COMPOUND_CID>
3144932

> <PUBCHEM_COORDINATE_TYPE>
1
5
255

> <PUBCHEM_EXACT_MASS>
335.109233

> <PUBCHEM_HEAVY_ATOM_COUNT>
24

> <PUBCHEM_ISOTOPIC_ATOM_COUNT>
0

> <PUBCHEM_IUPAC_CAS_NAME>
5-(1H-indol-3-ylmethyl)-3-(phenylmethyl)-2-sulfanylidene-4-imidazolidinone

> <PUBCHEM_IUPAC_INCHI>
InChI=1S/C19H17N3OS/c23-18-17(10-14-11-20-16-9-5-4-8-15(14)16)21-19(24)22(18)12-13-6-2-1-3-7-13/h1-9,11,17,20H,10,12H2,(H,21,24)

> <PUBCHEM_IUPAC_INCHIKEY>
DWYPPIGSSKJBOL-UHFFFAOYSA-N

> <PUBCHEM_IUPAC_NAME>
3-benzyl-5-(1H-indol-3-ylmethyl)-2-sulfanylideneimidazolidin-4-one

> <PUBCHEM_IUPAC_OPENEYE_NAME>
3-benzyl-5-(1H-indol-3-ylmethyl)-2-thioxo-imidazolidin-4-one

> <PUBCHEM_IUPAC_SYSTEMATIC_NAME>
5-(1H-indol-3-ylmethyl)-3-(phenylmethyl)-2-sulfanylidene-imidazolidin-4-one

> <PUBCHEM_IUPAC_TRADITIONAL_NAME>
3-benzyl-5-(1H-indol-3-ylmethyl)-2-thioxo-4-imidazolidinone

> <PUBCHEM_MOLECULAR_FORMULA>
C19H17N3OS

> <PUBCHEM_MOLECULAR_WEIGHT>
335.42278

> <PUBCHEM_MONOISOTOPIC_WEIGHT>
335.109233

> <PUBCHEM_OPENEYE_CAN_SMILES>
C1=CC=C(C=C1)CN2C(=O)C(NC2=S)CC3=CNC4=CC=CC=C43

> <PUBCHEM_OPENEYE_ISO_SMILES>
C1=CC=C(C=C1)CN2C(=O)C(NC2=S)CC3=CNC4=CC=CC=C43

> <PUBCHEM_TOTAL_CHARGE>
0

> <PUBCHEM_XLOGP3_AA>
3.3

$$$$
Largest isolated from Written by BCL::WriteToMDL,767981
JMcorina  04211410293D 1   1.00000     0.00000 
CORINA 3.49 0026  01.06.2011
 34 36  0  0  0  0  0  0  0  0999 V2000
   -0.0172    1.4168    0.0098 S   0  0  0  1  0  0  0  0  0  0  0  0
    4.8792   -1.1554   -1.9815 F   0  0  0  1  0  0  0  0  0  0  0  0
    0.3930    2.6133    0.6574 O   0  0  0  1  0  0  0  0  0  0  0  0
   -0.7690    0.4004    0.6586 O   0  0  0  1  0  0  0  0  0  0  0  0
   -0.9002    1.8797   -1.3124 N   0  0  0  1  0  0  0  0  0  0  0  0
   -0.7915    3.2460   -1.8418 C   0  0  0  1  0  0  0  0  0  0  0  0
   -2.2109    3.7486   -2.1368 C   0  0  0  1  0  0  0  0  0  0  0  0
   -2.8290    2.8714   -3.2253 C   0  0  0  1  0  0  0  0  0  0  0  0
   -1.7577    0.9745   -1.9473 C   0  0  0  1  0  0  0  0  0  0  0  0
   -2.7015    1.4149   -2.8643 C   0  0  0  1  0  0  0  0  0  0  0  0
   -1.6586   -0.3786   -1.6437 C   0  0  0  1  0  0  0  0  0  0  0  0
   -3.5444    0.4984   -3.4698 C   0  0  0  1  0  0  0  0  0  0  0  0
    1.4504    0.6458   -0.5870 C   0  0  0  1  0  0  0  0  0  0  0  0
   -2.4975   -1.2876   -2.2570 C   0  0  0  1  0  0  0  0  0  0  0  0
   -3.4499   -0.8452   -3.1620 C   0  0  0  1  0  0  0  0  0  0  0  0
    2.5825    1.4038   -0.8216 C   0  0  0  1  0  0  0  0  0  0  0  0
    1.4707   -0.7176   -0.8150 C   0  0  0  1  0  0  0  0  0  0  0  0
    3.7342    0.8002   -1.2897 C   0  0  0  1  0  0  0  0  0  0  0  0
    2.6214   -1.3235   -1.2827 C   0  0  0  1  0  0  0  0  0  0  0  0
    3.7541   -0.5644   -1.5234 C   0  0  0  1  0  0  0  0  0  0  0  0
   -0.3175    3.8917   -1.1026 H   0  0  0  1  0  0  0  0  0  0  0  0
   -0.2036    3.2406   -2.7596 H   0  0  0  1  0  0  0  0  0  0  0  0
   -2.8153    3.6878   -1.2318 H   0  0  0  1  0  0  0  0  0  0  0  0
   -2.1682    4.7820   -2.4809 H   0  0  0  1  0  0  0  0  0  0  0  0
   -3.8835    3.1242   -3.3362 H   0  0  0  1  0  0  0  0  0  0  0  0
   -2.3166    3.0546   -4.1698 H   0  0  0  1  0  0  0  0  0  0  0  0
   -0.9248   -0.7189   -0.9280 H   0  0  0  1  0  0  0  0  0  0  0  0
   -4.2795    0.8354   -4.1857 H   0  0  0  1  0  0  0  0  0  0  0  0
   -2.4203   -2.3389   -2.0217 H   0  0  0  1  0  0  0  0  0  0  0  0
   -4.1107   -1.5546   -3.6379 H   0  0  0  1  0  0  0  0  0  0  0  0
    2.5667    2.4682   -0.6392 H   0  0  0  1  0  0  0  0  0  0  0  0
    0.5871   -1.3095   -0.6272 H   0  0  0  1  0  0  0  0  0  0  0  0
    4.6182    1.3927   -1.4735 H   0  0  0  1  0  0  0  0  0  0  0  0
    2.6369   -2.3885   -1.4610 H   0  0  0  1  0  0  0  0  0  0  0  0
  1  3  2  0  0  0  0
  1  4  2  0  0  0  0
  1  5  1  0  0  0  0
  1 13  1  0  0  0  0
  2 20  1  0  0  0  0
  5  6  1  0  0  0  0
  5  9  1  0  0  0  0
  6  7  1  0  0  0  0
  6 21  1  0  0  0  0
  6 22  1  0  0  0  0
  7  8  1  0  0  0  0
  7 23  1  0  0  0  0
  7 24  1  0  0  0  0
  8 10  1  0  0  0  0
  8 25  1  0  0  0  0
  8 26  1  0  0  0  0
  9 10  4  0  0  0  0
  9 11  4  0  0  0  0
 10 12  4  0  0  0  0
 11 14  4  0  0  0  0
 11 27  1  0  0  0  0
 12 15  4  0  0  0  0
 12 28  1  0  0  0  0
 13 16  4  0  0  0  0
 13 17  4  0  0  0  0
 14 15  4  0  0  0  0
 14 29  1  0  0  0  0
 15 30  1  0  0  0  0
 16 18  4  0  0  0  0
 16 31  1  0  0  0  0
 17 19  4  0  0  0  0
 17 32  1  0  0  0  0
 18 20  4  0  0  0  0
 18 33  1  0  0  0  0
 19 20  4  0  0  0  0
 19 34  1  0  0  0  0
M  END
> <Activity>
0.01

> <Mapped(file=2032.csv.activities,property=Cached(PUBCHEM_COMPOUND_CID))>
100

> <MatchIndices>
157 

> <PUBCHEM_ATOM_DEF_STEREO_COUNT>
0

> <PUBCHEM_ATOM_UDEF_STEREO_COUNT>
0

> <PUBCHEM_BONDANNOTATIONS>
10  12  8
11  14  8
12  15  8
13  16  8
13  17  8
14  15  8
16  18  8
17  19  8
18  20  8
19  20  8
9  10  8
9  11  8

> <PUBCHEM_BOND_DEF_STEREO_COUNT>
0

> <PUBCHEM_BOND_UDEF_STEREO_COUNT>
0

> <PUBCHEM_CACTVS_COMPLEXITY>
426

> <PUBCHEM_CACTVS_HBOND_ACCEPTOR>
4

> <PUBCHEM_CACTVS_HBOND_DONOR>
0

> <PUBCHEM_CACTVS_ROTATABLE_BOND>
2

> <PUBCHEM_CACTVS_SUBSKEYS>
AAADccByMQBAAAAAAAAAAAAAAAAAAAAAAAA8YIAAAAAAAACxQAAAHQQAQAAADAjBWAwwwYIAAAKAAiRCQHDCABAhAgAIiBgIZIgIICLAkZGEIAhggADIyAcQgIAOAAAAAAACAAAAAAAAAAQAAAAAAAAAAA==

> <PUBCHEM_CACTVS_TAUTO_COUNT>
1

> <PUBCHEM_CACTVS_TPSA>
45.8

> <PUBCHEM_COMPONENT_COUNT>
1

> <PUBCHEM_COMPOUND_CANONICALIZED>
1

> <PUBCHEM_COMPOUND_CID>
767981

> <PUBCHEM_COORDINATE_TYPE>
1
5
255

> <PUBCHEM_EXACT_MASS>
291.072928

> <PUBCHEM_HEAVY_ATOM_COUNT>
20

> <PUBCHEM_ISOTOPIC_ATOM_COUNT>
0

> <PUBCHEM_IUPAC_CAS_NAME>
1-(4-fluorophenyl)sulfonyl-3,4-dihydro-2H-quinoline

> <PUBCHEM_IUPAC_INCHI>
InChI=1S/C15H14FNO2S/c16-13-7-9-14(10-8-13)20(18,19)17-11-3-5-12-4-1-2-6-15(12)17/h1-2,4,6-10H,3,5,11H2

> <PUBCHEM_IUPAC_INCHIKEY>
UXEDWAWAWJTDCB-UHFFFAOYSA-N

> <PUBCHEM_IUPAC_NAME>
1-(4-fluorophenyl)sulfonyl-3,4-dihydro-2H-quinoline

> <PUBCHEM_IUPAC_OPENEYE_NAME>
1-(4-fluorophenyl)sulfonyl-3,4-dihydro-2H-quinoline

> <PUBCHEM_IUPAC_SYSTEMATIC_NAME>
1-(4-fluorophenyl)sulfonyl-3,4-dihydro-2H-quinoline

> <PUBCHEM_IUPAC_TRADITIONAL_NAME>
1-(4-fluorophenyl)sulfonyl-3,4-dihydro-2H-quinoline

> <PUBCHEM_MOLECULAR_FORMULA>
C15H14FNO2S

> <PUBCHEM_MOLECULAR_WEIGHT>
291.340563

> <PUBCHEM_MONOISOTOPIC_WEIGHT>
291.072928

> <PUBCHEM_OPENEYE_CAN_SMILES>
C1CC2=CC=CC=C2N(C1)S(=O)(=O)C3=CC=C(C=C3)F

> <PUBCHEM_OPENEYE_ISO_SMILES>
C1CC2=CC=CC=C2N(C1)S(=O)(=O)C3=CC=C(C=C3)F

> <PUBCHEM_TOTAL_CHARGE>
0

> <PUBCHEM_XLOGP3_AA>
3.1

$$$$
Largest isolated from Written by BCL::WriteToMDL,2846583
JMcorina  04211410293D 1   1.00000     0.00000 
CORINA 3.49 0026  01.06.2011
 52 55  0  0  0  0  0  0  0  0999 V2000
   -0.0178    1.4648    0.0101 N   0  0  0  1  0  0  0  0  0  0  0  0
    3.2504    4.0379    0.7039 N   0  0  0  1  0  0  0  0  0  0  0  0
   -0.1244    0.2120   -0.7497 C   0  0  0  1  0  0  0  0  0  0  0  0
    0.0363   -0.8163   -3.0211 C   0  0  0  1  0  0  0  0  0  0  0  0
   -1.6436   -1.6688   -1.3798 C   0  0  0  1  0  0  0  0  0  0  0  0
    0.7903   -2.0980   -1.0133 C   0  0  0  1  0  0  0  0  0  0  0  0
    0.9013   -0.7932   -0.2220 C   0  0  0  1  0  0  0  0  0  0  0  0
   -1.5326   -0.3640   -0.5885 C   0  0  0  1  0  0  0  0  0  0  0  0
    0.1472    0.4885   -2.2298 C   0  0  0  1  0  0  0  0  0  0  0  0
   -0.6179   -2.6740   -0.8522 C   0  0  0  1  0  0  0  0  0  0  0  0
    1.0619   -1.8215   -2.4934 C   0  0  0  1  0  0  0  0  0  0  0  0
   -1.3720   -1.3923   -2.8599 C   0  0  0  1  0  0  0  0  0  0  0  0
    1.3352    2.0279   -0.0903 C   0  0  0  1  0  0  0  0  0  0  0  0
    1.2527    3.4710   -0.5954 C   0  0  0  1  0  0  0  0  0  0  0  0
    1.9982    2.0157    1.2899 C   0  0  0  1  0  0  0  0  0  0  0  0
    3.3833    2.6589    1.1907 C   0  0  0  1  0  0  0  0  0  0  0  0
    2.6594    4.0720   -0.6399 C   0  0  0  1  0  0  0  0  0  0  0  0
    4.5450    4.7316    0.7275 C   0  0  0  1  0  0  0  0  0  0  0  0
    4.3301    6.2220    0.4561 C   0  0  0  1  0  0  0  0  0  0  0  0
    5.6785    6.9445    0.4806 C   0  0  0  1  0  0  0  0  0  0  0  0
    0.2297   -0.6193   -4.0755 H   0  0  0  1  0  0  0  0  0  0  0  0
   -2.6468   -2.0792   -1.2649 H   0  0  0  1  0  0  0  0  0  0  0  0
    1.5210   -2.8141   -0.6375 H   0  0  0  1  0  0  0  0  0  0  0  0
    1.9045   -0.3828   -0.3369 H   0  0  0  1  0  0  0  0  0  0  0  0
    0.7078   -0.9902    0.8324 H   0  0  0  1  0  0  0  0  0  0  0  0
   -1.7261   -0.5610    0.4660 H   0  0  0  1  0  0  0  0  0  0  0  0
   -2.2633    0.3521   -0.9644 H   0  0  0  1  0  0  0  0  0  0  0  0
   -0.5835    1.2047   -2.6056 H   0  0  0  1  0  0  0  0  0  0  0  0
    1.1505    0.8989   -2.3446 H   0  0  0  1  0  0  0  0  0  0  0  0
   -2.1027   -0.6761   -3.2358 H   0  0  0  1  0  0  0  0  0  0  0  0
   -1.4510   -2.3218   -3.4236 H   0  0  0  1  0  0  0  0  0  0  0  0
    0.9829   -2.7510   -3.0572 H   0  0  0  1  0  0  0  0  0  0  0  0
    2.0652   -1.4111   -2.6083 H   0  0  0  1  0  0  0  0  0  0  0  0
   -0.8114   -2.8710    0.2023 H   0  0  0  1  0  0  0  0  0  0  0  0
   -0.6969   -3.6036   -1.4159 H   0  0  0  1  0  0  0  0  0  0  0  0
   -0.7108    2.1322   -0.2941 H   0  0  0  1  0  0  0  0  0  0  0  0
    1.9271    1.4321   -0.7851 H   0  0  0  1  0  0  0  0  0  0  0  0
    0.8204    3.4822   -1.5960 H   0  0  0  1  0  0  0  0  0  0  0  0
    0.6277    4.0572    0.0782 H   0  0  0  1  0  0  0  0  0  0  0  0
    1.3849    2.5790    1.9932 H   0  0  0  1  0  0  0  0  0  0  0  0
    2.0986    0.9871    1.6363 H   0  0  0  1  0  0  0  0  0  0  0  0
    2.6026    5.1042   -0.9856 H   0  0  0  1  0  0  0  0  0  0  0  0
    3.2800    3.4936   -1.3243 H   0  0  0  1  0  0  0  0  0  0  0  0
    4.0005    2.0870    0.4977 H   0  0  0  1  0  0  0  0  0  0  0  0
    3.8523    2.6647    2.1746 H   0  0  0  1  0  0  0  0  0  0  0  0
    5.0081    4.6036    1.7059 H   0  0  0  1  0  0  0  0  0  0  0  0
    5.1957    4.3127   -0.0401 H   0  0  0  1  0  0  0  0  0  0  0  0
    3.8670    6.3500   -0.5223 H   0  0  0  1  0  0  0  0  0  0  0  0
    3.6794    6.6409    1.2236 H   0  0  0  1  0  0  0  0  0  0  0  0
    6.1416    6.8165    1.4590 H   0  0  0  1  0  0  0  0  0  0  0  0
    6.3292    6.5255   -0.2870 H   0  0  0  1  0  0  0  0  0  0  0  0
    5.5253    8.0062    0.2872 H   0  0  0  1  0  0  0  0  0  0  0  0
  1  3  1  0  0  0  0
  1 13  1  0  0  0  0
  1 36  1  0  0  0  0
  2 16  1  0  0  0  0
  2 17  1  0  0  0  0
  2 18  1  0  0  0  0
  3  7  1  0  0  0  0
  3  8  1  0  0  0  0
  3  9  1  0  0  0  0
  4  9  1  0  0  0  0
  4 11  1  0  0  0  0
  4 12  1  0  0  0  0
  4 21  1  0  0  0  0
  5  8  1  0  0  0  0
  5 10  1  0  0  0  0
  5 12  1  0  0  0  0
  5 22  1  0  0  0  0
  6  7  1  0  0  0  0
  6 10  1  0  0  0  0
  6 11  1  0  0  0  0
  6 23  1  0  0  0  0
  7 24  1  0  0  0  0
  7 25  1  0  0  0  0
  8 26  1  0  0  0  0
  8 27  1  0  0  0  0
  9 28  1  0  0  0  0
  9 29  1  0  0  0  0
 10 34  1  0  0  0  0
 10 35  1  0  0  0  0
 11 32  1  0  0  0  0
 11 33  1  0  0  0  0
 12 30  1  0  0  0  0
 12 31  1  0  0  0  0
 13 14  1  0  0  0  0
 13 15  1  0  0  0  0
 13 37  1  0  0  0  0
 14 17  1  0  0  0  0
 14 38  1  0  0  0  0
 14 39  1  0  0  0  0
 15 16  1  0  0  0  0
 15 40  1  0  0  0  0
 15 41  1  0  0  0  0
 16 44  1  0  0  0  0
 16 45  1  0  0  0  0
 17 42  1  0  0  0  0
 17 43  1  0  0  0  0
 18 19  1  0  0  0  0
 18 46  1  0  0  0  0
 18 47  1  0  0  0  0
 19 20  1  0  0  0  0
 19 48  1  0  0  0  0
 19 49  1  0  0  0  0
 20 50  1  0  0  0  0
 20 51  1  0  0  0  0
 20 52  1  0  0  0  0
M  END
> <Activity>
0.01

> <Mapped(file=2032.csv.activities,property=Cached(PUBCHEM_COMPOUND_CID))>
100

> <MatchIndices>
81 

> <PUBCHEM_ATOM_DEF_STEREO_COUNT>
0

> <PUBCHEM_ATOM_UDEF_STEREO_COUNT>
0

> <PUBCHEM_BOND_DEF_STEREO_COUNT>
0

> <PUBCHEM_BOND_UDEF_STEREO_COUNT>
0

> <PUBCHEM_CACTVS_COMPLEXITY>
302

> <PUBCHEM_CACTVS_HBOND_ACCEPTOR>
2

> <PUBCHEM_CACTVS_HBOND_DONOR>
1

> <PUBCHEM_CACTVS_ROTATABLE_BOND>
4

> <PUBCHEM_CACTVS_SUBSKEYS>
AAADcfB7AAAAAAAAAAAAAAAAAAAAAAAAAAA8YMGCAAAAAAAAAAAAHAAQAAAADajBAAQCAAPAAAAAAAAAAAAAAAAAAAAAAIAIAAAAAAIAwAAEAAAAEACAAAEQgMAOAAAAAAAAAAAAAASAAAAAAAAAAAAAAA==

> <PUBCHEM_CACTVS_TAUTO_COUNT>
1

> <PUBCHEM_CACTVS_TPSA>
15.3

> <PUBCHEM_COMPONENT_COUNT>
1

> <PUBCHEM_COMPOUND_CANONICALIZED>
1

> <PUBCHEM_COMPOUND_CID>
2846583

> <PUBCHEM_COORDINATE_TYPE>
1
5
255

> <PUBCHEM_EXACT_MASS>
276.256549

> <PUBCHEM_HEAVY_ATOM_COUNT>
20

> <PUBCHEM_ISOTOPIC_ATOM_COUNT>
0

> <PUBCHEM_IUPAC_CAS_NAME>
N-(1-adamantyl)-1-propyl-4-piperidinamine

> <PUBCHEM_IUPAC_INCHI>
InChI=1S/C18H32N2/c1-2-5-20-6-3-17(4-7-20)19-18-11-14-8-15(12-18)10-16(9-14)13-18/h14-17,19H,2-13H2,1H3

> <PUBCHEM_IUPAC_INCHIKEY>
QXZQINDZMQDFRZ-UHFFFAOYSA-N

> <PUBCHEM_IUPAC_NAME>
N-(1-adamantyl)-1-propylpiperidin-4-amine

> <PUBCHEM_IUPAC_OPENEYE_NAME>
N-(1-adamantyl)-1-propyl-piperidin-4-amine

> <PUBCHEM_IUPAC_SYSTEMATIC_NAME>
N-(1-adamantyl)-1-propyl-piperidin-4-amine

> <PUBCHEM_IUPAC_TRADITIONAL_NAME>
1-adamantyl-(1-propyl-4-piperidyl)amine

> <PUBCHEM_MOLECULAR_FORMULA>
C18H32N2

> <PUBCHEM_MOLECULAR_WEIGHT>
276.46008

> <PUBCHEM_MONOISOTOPIC_WEIGHT>
276.256549

> <PUBCHEM_OPENEYE_CAN_SMILES>
CCCN1CCC(CC1)NC23CC4CC(C2)CC(C4)C3

> <PUBCHEM_OPENEYE_ISO_SMILES>
CCCN1CCC(CC1)NC23CC4CC(C2)CC(C4)C3

> <PUBCHEM_TOTAL_CHARGE>
0

> <PUBCHEM_XLOGP3_AA>
4

$$$$
Largest isolated from Written by BCL::WriteToMDL,9104271
JMcorina  04211410293D 1   1.00000     0.00000 
CORINA 3.49 0026  01.06.2011
 50 53  0  0  0  0  0  0  0  0999 V2000
    3.6913   -6.3806   -1.7929 Cl  0  0  0  1  0  0  0  0  0  0  0  0
   -0.5453    4.0362    0.0329 O   0  0  0  1  0  0  0  0  0  0  0  0
   -0.0179    1.4653    0.0101 N   0  0  0  1  0  0  0  0  0  0  0  0
    2.0995    0.0476   -1.2596 N   0  0  0  1  0  0  0  0  0  0  0  0
   -1.6637    4.1467    1.9458 N   0  0  0  1  0  0  0  0  0  0  0  0
    0.0021   -0.0041    0.0020 C   0  0  0  1  0  0  0  0  0  0  0  0
    1.3479    2.0078   -0.0000 C   0  0  0  1  0  0  0  0  0  0  0  0
    2.0796    1.5170   -1.2516 C   0  0  0  1  0  0  0  0  0  0  0  0
    0.7337   -0.4948   -1.2495 C   0  0  0  1  0  0  0  0  0  0  0  0
   -0.7783    1.9752    1.1589 C   0  0  0  1  0  0  0  0  0  0  0  0
    2.8599   -0.4622   -2.4084 C   0  0  0  1  0  0  0  0  0  0  0  0
   -1.9293    5.5873    1.9062 C   0  0  0  1  0  0  0  0  0  0  0  0
   -0.9867    3.4597    1.0044 C   0  0  0  1  0  0  0  0  0  0  0  0
   -2.7237    5.8862    3.1880 C   0  0  0  1  0  0  0  0  0  0  0  0
   -2.2105    3.5903    3.1063 C   0  0  0  1  0  0  0  0  0  0  0  0
   -2.8513    4.5468    3.8781 C   0  0  0  1  0  0  0  0  0  0  0  0
    3.0684   -1.9467   -2.2539 C   0  0  0  1  0  0  0  0  0  0  0  0
   -2.1946    2.2651    3.5447 C   0  0  0  1  0  0  0  0  0  0  0  0
   -3.4613    4.1943    5.0663 C   0  0  0  1  0  0  0  0  0  0  0  0
   -2.8005    1.9188    4.7338 C   0  0  0  1  0  0  0  0  0  0  0  0
   -3.4421    2.8794    5.4935 C   0  0  0  1  0  0  0  0  0  0  0  0
    2.1404   -2.8321   -2.7697 C   0  0  0  1  0  0  0  0  0  0  0  0
    4.1904   -2.4227   -1.6015 C   0  0  0  1  0  0  0  0  0  0  0  0
    2.3311   -4.1937   -2.6283 C   0  0  0  1  0  0  0  0  0  0  0  0
    4.3826   -3.7841   -1.4603 C   0  0  0  1  0  0  0  0  0  0  0  0
    3.4511   -4.6706   -1.9708 C   0  0  0  1  0  0  0  0  0  0  0  0
    0.5192   -0.3656    0.8908 H   0  0  0  1  0  0  0  0  0  0  0  0
   -1.0204   -0.3816   -0.0030 H   0  0  0  1  0  0  0  0  0  0  0  0
    1.3066    3.0970   -0.0066 H   0  0  0  1  0  0  0  0  0  0  0  0
    1.8803    1.6690    0.8887 H   0  0  0  1  0  0  0  0  0  0  0  0
    0.2013   -0.1561   -2.1383 H   0  0  0  1  0  0  0  0  0  0  0  0
    0.7751   -1.5840   -1.2430 H   0  0  0  1  0  0  0  0  0  0  0  0
    3.1021    1.8946   -1.2465 H   0  0  0  1  0  0  0  0  0  0  0  0
    1.5625    1.8786   -2.1404 H   0  0  0  1  0  0  0  0  0  0  0  0
   -1.7458    1.4753    1.2050 H   0  0  0  1  0  0  0  0  0  0  0  0
   -0.2242    1.7797    2.0770 H   0  0  0  1  0  0  0  0  0  0  0  0
    2.3059   -0.2668   -3.3265 H   0  0  0  1  0  0  0  0  0  0  0  0
    3.8274    0.0377   -2.4545 H   0  0  0  1  0  0  0  0  0  0  0  0
   -0.9925    6.1445    1.9034 H   0  0  0  1  0  0  0  0  0  0  0  0
   -2.5221    5.8384    1.0267 H   0  0  0  1  0  0  0  0  0  0  0  0
   -2.1781    6.5883    3.8184 H   0  0  0  1  0  0  0  0  0  0  0  0
   -3.7089    6.2820    2.9411 H   0  0  0  1  0  0  0  0  0  0  0  0
   -1.7059    1.5078    2.9497 H   0  0  0  1  0  0  0  0  0  0  0  0
   -3.9541    4.9476    5.6631 H   0  0  0  1  0  0  0  0  0  0  0  0
   -2.7847    0.8916    5.0667 H   0  0  0  1  0  0  0  0  0  0  0  0
   -3.9188    2.6052    6.4230 H   0  0  0  1  0  0  0  0  0  0  0  0
    1.2662   -2.4598   -3.2829 H   0  0  0  1  0  0  0  0  0  0  0  0
    4.9171   -1.7306   -1.2023 H   0  0  0  1  0  0  0  0  0  0  0  0
    1.6057   -4.8853   -3.0307 H   0  0  0  1  0  0  0  0  0  0  0  0
    5.2592   -4.1558   -0.9505 H   0  0  0  1  0  0  0  0  0  0  0  0
  1 26  1  0  0  0  0
  2 13  2  0  0  0  0
  3  6  1  0  0  0  0
  3  7  1  0  0  0  0
  3 10  1  0  0  0  0
  4  8  1  0  0  0  0
  4  9  1  0  0  0  0
  4 11  1  0  0  0  0
  5 12  1  0  0  0  0
  5 13  1  0  0  0  0
  5 15  1  0  0  0  0
  6  9  1  0  0  0  0
  6 27  1  0  0  0  0
  6 28  1  0  0  0  0
  7  8  1  0  0  0  0
  7 29  1  0  0  0  0
  7 30  1  0  0  0  0
  8 33  1  0  0  0  0
  8 34  1  0  0  0  0
  9 31  1  0  0  0  0
  9 32  1  0  0  0  0
 10 13  1  0  0  0  0
 10 35  1  0  0  0  0
 10 36  1  0  0  0  0
 11 17  1  0  0  0  0
 11 37  1  0  0  0  0
 11 38  1  0  0  0  0
 12 14  1  0  0  0  0
 12 39  1  0  0  0  0
 12 40  1  0  0  0  0
 14 16  1  0  0  0  0
 14 41  1  0  0  0  0
 14 42  1  0  0  0  0
 15 16  4  0  0  0  0
 15 18  4  0  0  0  0
 16 19  4  0  0  0  0
 17 22  4  0  0  0  0
 17 23  4  0  0  0  0
 18 20  4  0  0  0  0
 18 43  1  0  0  0  0
 19 21  4  0  0  0  0
 19 44  1  0  0  0  0
 20 21  4  0  0  0  0
 20 45  1  0  0  0  0
 21 46  1  0  0  0  0
 22 24  4  0  0  0  0
 22 47  1  0  0  0  0
 23 25  4  0  0  0  0
 23 48  1  0  0  0  0
 24 26  4  0  0  0  0
 24 49  1  0  0  0  0
 25 26  4  0  0  0  0
 25 50  1  0  0  0  0
M  END
> <Activity>
0.01

> <Mapped(file=2032.csv.activities,property=Cached(PUBCHEM_COMPOUND_CID))>
100

> <MatchIndices>
165 

> <PUBCHEM_ATOM_DEF_STEREO_COUNT>
0

> <PUBCHEM_ATOM_UDEF_STEREO_COUNT>
0

> <PUBCHEM_BONDANNOTATIONS>
15  16  8
15  18  8
16  19  8
17  22  8
17  23  8
18  20  8
19  21  8
20  21  8
22  24  8
23  25  8
24  26  8
25  26  8

> <PUBCHEM_BOND_DEF_STEREO_COUNT>
0

> <PUBCHEM_BOND_UDEF_STEREO_COUNT>
0

> <PUBCHEM_CACTVS_COMPLEXITY>
472

> <PUBCHEM_CACTVS_HBOND_ACCEPTOR>
3

> <PUBCHEM_CACTVS_HBOND_DONOR>
0

> <PUBCHEM_CACTVS_ROTATABLE_BOND>
4

> <PUBCHEM_CACTVS_SUBSKEYS>
AAADceB7IAAEAAAAAAAAAAAAAAAAAWAAAAA8YIAAAAAAAFgBQAAAHgIAAAAADArBmCQwwIMAAACIAiVSUACCAAAhBwAIiACIZogIYCLBk7GUIAhghgDIyAcQgIAOBAAAAAACAAAIAAAAAAQAAAAAAAAAAA==

> <PUBCHEM_CACTVS_TAUTO_COUNT>
1

> <PUBCHEM_CACTVS_TPSA>
26.8

> <PUBCHEM_COMPONENT_COUNT>
1

> <PUBCHEM_COMPOUND_CANONICALIZED>
1

> <PUBCHEM_COMPOUND_CID>
9104271

> <PUBCHEM_COORDINATE_TYPE>
1
5
255

> <PUBCHEM_EXACT_MASS>
369.16079

> <PUBCHEM_HEAVY_ATOM_COUNT>
26

> <PUBCHEM_ISOTOPIC_ATOM_COUNT>
0

> <PUBCHEM_IUPAC_CAS_NAME>
2-[4-[(4-chlorophenyl)methyl]-1-piperazinyl]-1-(2,3-dihydroindol-1-yl)ethanone

> <PUBCHEM_IUPAC_INCHI>
InChI=1S/C21H24ClN3O/c22-19-7-5-17(6-8-19)15-23-11-13-24(14-12-23)16-21(26)25-10-9-18-3-1-2-4-20(18)25/h1-8H,9-16H2

> <PUBCHEM_IUPAC_INCHIKEY>
UHEJJZNLPMHGJA-UHFFFAOYSA-N

> <PUBCHEM_IUPAC_NAME>
2-[4-[(4-chlorophenyl)methyl]piperazin-1-yl]-1-(2,3-dihydroindol-1-yl)ethanone

> <PUBCHEM_IUPAC_OPENEYE_NAME>
2-[4-[(4-chlorophenyl)methyl]piperazin-1-yl]-1-indolin-1-yl-ethanone

> <PUBCHEM_IUPAC_SYSTEMATIC_NAME>
2-[4-[(4-chlorophenyl)methyl]piperazin-1-yl]-1-(2,3-dihydroindol-1-yl)ethanone

> <PUBCHEM_IUPAC_TRADITIONAL_NAME>
2-[4-(4-chlorobenzyl)piperazino]-1-indolin-1-yl-ethanone

> <PUBCHEM_MOLECULAR_FORMULA>
C21H24ClN3O

> <PUBCHEM_MOLECULAR_WEIGHT>
369.88776

> <PUBCHEM_MONOISOTOPIC_WEIGHT>
369.16079

> <PUBCHEM_OPENEYE_CAN_SMILES>
C1CN(C2=CC=CC=C21)C(=O)CN3CCN(CC3)CC4=CC=C(C=C4)Cl

> <PUBCHEM_OPENEYE_ISO_SMILES>
C1CN(C2=CC=CC=C21)C(=O)CN3CCN(CC3)CC4=CC=C(C=C4)Cl

> <PUBCHEM_TOTAL_CHARGE>
0

> <PUBCHEM_XLOGP3_AA>
3.3

$$$$
Largest isolated from Written by BCL::WriteToMDL,24817155
JMcorina  04211410293D 1   1.00000     0.00000 
CORINA 3.49 0026  01.06.2011
 43 45  0  0  0  0  0  0  0  0999 V2000
   -1.4337   -6.3443    1.9883 F   0  0  0  1  0  0  0  0  0  0  0  0
   -2.1844    1.5529   -0.3580 O   0  0  0  1  0  0  0  0  0  0  0  0
   -0.0754    1.4390    0.3286 N   0  0  0  1  0  0  0  0  0  0  0  0
    0.5498   -2.0131    1.5848 N   0  0  0  1  0  0  0  0  0  0  0  0
    0.4247   -0.5547    1.6437 C   0  0  0  1  0  0  0  0  0  0  0  0
    1.7912    0.0633    1.9483 C   0  0  0  1  0  0  0  0  0  0  0  0
   -0.0796   -0.0299    0.2957 C   0  0  0  1  0  0  0  0  0  0  0  0
    1.6554    1.5848    2.0425 C   0  0  0  1  0  0  0  0  0  0  0  0
    1.1651    2.1338    0.6990 C   0  0  0  1  0  0  0  0  0  0  0  0
   -1.1868    2.1359    0.0193 C   0  0  0  1  0  0  0  0  0  0  0  0
   -0.5608   -2.8202    1.8417 C   0  0  0  1  0  0  0  0  0  0  0  0
   -1.1924    3.6097    0.1389 C   0  0  0  1  0  0  0  0  0  0  0  0
   -0.4436   -4.2027    1.7863 C   0  0  0  1  0  0  0  0  0  0  0  0
   -1.7835   -2.2414    2.1588 C   0  0  0  1  0  0  0  0  0  0  0  0
   -0.1812    4.3625   -0.4551 C   0  0  0  1  0  0  0  0  0  0  0  0
   -2.2141    4.2507    0.8426 C   0  0  0  1  0  0  0  0  0  0  0  0
   -1.5457   -4.9990    2.0417 C   0  0  0  1  0  0  0  0  0  0  0  0
   -2.8802   -3.0411    2.4129 C   0  0  0  1  0  0  0  0  0  0  0  0
   -0.1941    5.7502   -0.3376 C   0  0  0  1  0  0  0  0  0  0  0  0
   -2.7639   -4.4175    2.3518 C   0  0  0  1  0  0  0  0  0  0  0  0
   -2.2209    5.6269    0.9548 C   0  0  0  1  0  0  0  0  0  0  0  0
   -1.2187    6.3782    0.3739 C   0  0  0  1  0  0  0  0  0  0  0  0
    0.8413    6.5313   -0.9445 C   0  0  0  1  0  0  0  0  0  0  0  0
    1.6902    7.1717   -1.4420 C   0  0  0  1  0  0  0  0  0  0  0  0
   -0.2811   -0.2815    2.4281 H   0  0  0  1  0  0  0  0  0  0  0  0
    2.1635   -0.3273    2.8953 H   0  0  0  1  0  0  0  0  0  0  0  0
    2.4902   -0.1902    1.1512 H   0  0  0  1  0  0  0  0  0  0  0  0
   -1.0938   -0.3886    0.1202 H   0  0  0  1  0  0  0  0  0  0  0  0
    0.5769   -0.3795   -0.5012 H   0  0  0  1  0  0  0  0  0  0  0  0
    0.9378    1.8383    2.8228 H   0  0  0  1  0  0  0  0  0  0  0  0
    2.6244    2.0224    2.2825 H   0  0  0  1  0  0  0  0  0  0  0  0
    1.9230    1.9607   -0.0650 H   0  0  0  1  0  0  0  0  0  0  0  0
    0.9721    3.2027    0.7896 H   0  0  0  1  0  0  0  0  0  0  0  0
    1.4039   -2.4183    1.3675 H   0  0  0  1  0  0  0  0  0  0  0  0
    0.5063   -4.6556    1.5437 H   0  0  0  1  0  0  0  0  0  0  0  0
   -1.8760   -1.1664    2.2069 H   0  0  0  1  0  0  0  0  0  0  0  0
    0.6091    3.8720   -1.0039 H   0  0  0  1  0  0  0  0  0  0  0  0
   -3.0008    3.6689    1.2997 H   0  0  0  1  0  0  0  0  0  0  0  0
   -3.8303   -2.5907    2.6597 H   0  0  0  1  0  0  0  0  0  0  0  0
   -3.6235   -5.0405    2.5503 H   0  0  0  1  0  0  0  0  0  0  0  0
   -3.0138    6.1179    1.4995 H   0  0  0  1  0  0  0  0  0  0  0  0
   -1.2295    7.4542    0.4660 H   0  0  0  1  0  0  0  0  0  0  0  0
    2.4494    7.7445   -1.8870 H   0  0  0  1  0  0  0  0  0  0  0  0
  1 17  1  0  0  0  0
  2 10  2  0  0  0  0
  3  7  1  0  0  0  0
  3  9  1  0  0  0  0
  3 10  1  0  0  0  0
  4  5  1  0  0  0  0
  4 11  1  0  0  0  0
  4 34  1  0  0  0  0
  5  6  1  0  0  0  0
  5  7  1  0  0  0  0
  5 25  1  0  0  0  0
  6  8  1  0  0  0  0
  6 26  1  0  0  0  0
  6 27  1  0  0  0  0
  7 28  1  0  0  0  0
  7 29  1  0  0  0  0
  8  9  1  0  0  0  0
  8 30  1  0  0  0  0
  8 31  1  0  0  0  0
  9 32  1  0  0  0  0
  9 33  1  0  0  0  0
 10 12  1  0  0  0  0
 11 13  4  0  0  0  0
 11 14  4  0  0  0  0
 12 15  4  0  0  0  0
 12 16  4  0  0  0  0
 13 17  4  0  0  0  0
 13 35  1  0  0  0  0
 14 18  4  0  0  0  0
 14 36  1  0  0  0  0
 15 19  4  0  0  0  0
 15 37  1  0  0  0  0
 16 21  4  0  0  0  0
 16 38  1  0  0  0  0
 17 20  4  0  0  0  0
 18 20  4  0  0  0  0
 18 39  1  0  0  0  0
 19 22  4  0  0  0  0
 19 23  1  0  0  0  0
 20 40  1  0  0  0  0
 21 22  4  0  0  0  0
 21 41  1  0  0  0  0
 22 42  1  0  0  0  0
 23 24  3  0  0  0  0
 24 43  1  0  0  0  0
M  END
> <Activity>
0.01

> <Mapped(file=2032.csv.activities,property=Cached(PUBCHEM_COMPOUND_CID))>
100

> <MatchIndices>
105 

> <PUBCHEM_ATOM_DEF_STEREO_COUNT>
0

> <PUBCHEM_ATOM_UDEF_STEREO_COUNT>
1

> <PUBCHEM_BONDANNOTATIONS>
11  13  8
11  14  8
12  15  8
12  16  8
13  17  8
14  18  8
15  19  8
16  21  8
17  20  8
18  20  8
19  22  8
21  22  8
5  4  3

> <PUBCHEM_BOND_DEF_STEREO_COUNT>
0

> <PUBCHEM_BOND_UDEF_STEREO_COUNT>
0

> <PUBCHEM_CACTVS_COMPLEXITY>
485

> <PUBCHEM_CACTVS_HBOND_ACCEPTOR>
3

> <PUBCHEM_CACTVS_HBOND_DONOR>
1

> <PUBCHEM_CACTVS_ROTATABLE_BOND>
4

> <PUBCHEM_CACTVS_SUBSKEYS>
AAADceB7IQAAAAAAAAAAAAAAAAAAAAAAAAA8YIAAAAAAAAABQAAAHwAQAAAADCjBmAwwwIPAAADIGiVSUAiCAAAlAgAIiIEIZMgIYDLAlZGUIQhglgDIyYcYiECOAAACAAAAAAAAAAQAAAAAAAAAAAAAAA==

> <PUBCHEM_CACTVS_TAUTO_COUNT>
1

> <PUBCHEM_CACTVS_TPSA>
32.3

> <PUBCHEM_COMPONENT_COUNT>
1

> <PUBCHEM_COMPOUND_CANONICALIZED>
1

> <PUBCHEM_COMPOUND_CID>
24817155

> <PUBCHEM_COORDINATE_TYPE>
1
5
255

> <PUBCHEM_EXACT_MASS>
322.148141

> <PUBCHEM_HEAVY_ATOM_COUNT>
24

> <PUBCHEM_ISOTOPIC_ATOM_COUNT>
0

> <PUBCHEM_IUPAC_CAS_NAME>
(3-ethynylphenyl)-[3-(3-fluoroanilino)-1-piperidinyl]methanone

> <PUBCHEM_IUPAC_INCHI>
InChI=1S/C20H19FN2O/c1-2-15-6-3-7-16(12-15)20(24)23-11-5-10-19(14-23)22-18-9-4-8-17(21)13-18/h1,3-4,6-9,12-13,19,22H,5,10-11,14H2

> <PUBCHEM_IUPAC_INCHIKEY>
KMAXHEMHAUVWDK-UHFFFAOYSA-N

> <PUBCHEM_IUPAC_NAME>
(3-ethynylphenyl)-[3-(3-fluoroanilino)piperidin-1-yl]methanone

> <PUBCHEM_IUPAC_OPENEYE_NAME>
(3-ethynylphenyl)-[3-(3-fluoroanilino)-1-piperidyl]methanone

> <PUBCHEM_IUPAC_SYSTEMATIC_NAME>
(3-ethynylphenyl)-[3-[(3-fluorophenyl)amino]piperidin-1-yl]methanone

> <PUBCHEM_IUPAC_TRADITIONAL_NAME>
(3-ethynylphenyl)-[3-(3-fluoroanilino)piperidino]methanone

> <PUBCHEM_MOLECULAR_FORMULA>
C20H19FN2O

> <PUBCHEM_MOLECULAR_WEIGHT>
322.376063

> <PUBCHEM_MONOISOTOPIC_WEIGHT>
322.148141

> <PUBCHEM_OPENEYE_CAN_SMILES>
C#CC1=CC(=CC=C1)C(=O)N2CCCC(C2)NC3=CC(=CC=C3)F

> <PUBCHEM_OPENEYE_ISO_SMILES>
C#CC1=CC(=CC=C1)C(=O)N2CCCC(C2)NC3=CC(=CC=C3)F

> <PUBCHEM_TOTAL_CHARGE>
0

> <PUBCHEM_XLOGP3_AA>
4

$$$$
Largest isolated from Written by BCL::WriteToMDL,721013
JMcorina  04211410293D 1   1.00000     0.00000 
CORINA 3.49 0026  01.06.2011
 40 42  0  0  0  0  0  0  0  0999 V2000
    0.8692    0.7874   -0.9149 O   0  0  0  1  0  0  0  0  0  0  0  0
    1.5747   -1.3168   -0.9460 O   0  0  0  1  0  0  0  0  0  0  0  0
   -2.4361   -4.2555    0.0024 N   0  0  0  1  0  0  0  0  0  0  0  0
   -0.3750   -4.5611    1.0981 N   0  0  0  1  0  0  0  0  0  0  0  0
    0.4573   -6.6413    1.6837 N   0  0  0  1  0  0  0  0  0  0  0  0
   -1.6372   -6.4791    0.5806 C   0  0  0  1  0  0  0  0  0  0  0  0
   -1.4754   -5.0721    0.5621 C   0  0  0  1  0  0  0  0  0  0  0  0
   -0.6152   -7.2622    1.1702 C   0  0  0  1  0  0  0  0  0  0  0  0
   -2.7648   -7.1055    0.0383 C   0  0  0  1  0  0  0  0  0  0  0  0
   -2.8654   -8.4649    0.0847 C   0  0  0  1  0  0  0  0  0  0  0  0
   -2.2042   -2.8817   -0.1142 C   0  0  0  1  0  0  0  0  0  0  0  0
   -0.7511   -8.6567    1.2007 C   0  0  0  1  0  0  0  0  0  0  0  0
   -1.8622   -9.2365    0.6642 C   0  0  0  1  0  0  0  0  0  0  0  0
   -0.9284   -2.4150   -0.3922 C   0  0  0  1  0  0  0  0  0  0  0  0
   -0.7026   -1.0433   -0.5081 C   0  0  0  1  0  0  0  0  0  0  0  0
   -3.2537   -1.9840    0.0426 C   0  0  0  1  0  0  0  0  0  0  0  0
   -4.0793   -9.1407   -0.4990 C   0  0  0  1  0  0  0  0  0  0  0  0
   -1.7632   -0.1495   -0.3433 C   0  0  0  1  0  0  0  0  0  0  0  0
   -3.0299   -0.6245   -0.0722 C   0  0  0  1  0  0  0  0  0  0  0  0
    0.5538   -5.3338    1.6385 C   0  0  0  1  0  0  0  0  0  0  0  0
    0.6538   -0.5377   -0.8035 C   0  0  0  1  0  0  0  0  0  0  0  0
    2.2267    1.2123   -1.2065 C   0  0  0  1  0  0  0  0  0  0  0  0
    2.2753    2.7390   -1.2952 C   0  0  0  1  0  0  0  0  0  0  0  0
   -3.5497   -6.5169   -0.4132 H   0  0  0  1  0  0  0  0  0  0  0  0
   -3.2725   -4.6345   -0.3101 H   0  0  0  1  0  0  0  0  0  0  0  0
    0.0191   -9.2681    1.6471 H   0  0  0  1  0  0  0  0  0  0  0  0
   -1.9654  -10.3113    0.6889 H   0  0  0  1  0  0  0  0  0  0  0  0
   -0.1123   -3.1111   -0.5181 H   0  0  0  1  0  0  0  0  0  0  0  0
   -4.2475   -2.3497    0.2550 H   0  0  0  1  0  0  0  0  0  0  0  0
   -3.8980   -9.3697   -1.5492 H   0  0  0  1  0  0  0  0  0  0  0  0
   -4.2781  -10.0640    0.0451 H   0  0  0  1  0  0  0  0  0  0  0  0
   -4.9400   -8.4771   -0.4153 H   0  0  0  1  0  0  0  0  0  0  0  0
   -1.5925    0.9133   -0.4319 H   0  0  0  1  0  0  0  0  0  0  0  0
   -3.8495    0.0680    0.0504 H   0  0  0  1  0  0  0  0  0  0  0  0
    1.4311   -4.8667    2.0610 H   0  0  0  1  0  0  0  0  0  0  0  0
    2.8920    0.8732   -0.4125 H   0  0  0  1  0  0  0  0  0  0  0  0
    2.5459    0.7829   -2.1561 H   0  0  0  1  0  0  0  0  0  0  0  0
    3.2944    3.0580   -1.5140 H   0  0  0  1  0  0  0  0  0  0  0  0
    1.6100    3.0782   -2.0892 H   0  0  0  1  0  0  0  0  0  0  0  0
    1.9562    3.1685   -0.3455 H   0  0  0  1  0  0  0  0  0  0  0  0
  1 21  1  0  0  0  0
  1 22  1  0  0  0  0
  2 21  2  0  0  0  0
  3  7  1  0  0  0  0
  3 11  1  0  0  0  0
  3 25  1  0  0  0  0
  4  7  4  0  0  0  0
  4 20  4  0  0  0  0
  5  8  4  0  0  0  0
  5 20  4  0  0  0  0
  6  7  4  0  0  0  0
  6  8  4  0  0  0  0
  6  9  4  0  0  0  0
  8 12  4  0  0  0  0
  9 10  4  0  0  0  0
  9 24  1  0  0  0  0
 10 13  4  0  0  0  0
 10 17  1  0  0  0  0
 11 14  4  0  0  0  0
 11 16  4  0  0  0  0
 12 13  4  0  0  0  0
 12 26  1  0  0  0  0
 13 27  1  0  0  0  0
 14 15  4  0  0  0  0
 14 28  1  0  0  0  0
 15 18  4  0  0  0  0
 15 21  1  0  0  0  0
 16 19  4  0  0  0  0
 16 29  1  0  0  0  0
 17 30  1  0  0  0  0
 17 31  1  0  0  0  0
 17 32  1  0  0  0  0
 18 19  4  0  0  0  0
 18 33  1  0  0  0  0
 19 34  1  0  0  0  0
 20 35  1  0  0  0  0
 22 23  1  0  0  0  0
 22 36  1  0  0  0  0
 22 37  1  0  0  0  0
 23 38  1  0  0  0  0
 23 39  1  0  0  0  0
 23 40  1  0  0  0  0
M  END
> <Activity>
0.01

> <Mapped(file=2032.csv.activities,property=Cached(PUBCHEM_COMPOUND_CID))>
100

> <MatchIndices>
114 

> <PUBCHEM_ATOM_DEF_STEREO_COUNT>
0

> <PUBCHEM_ATOM_UDEF_STEREO_COUNT>
0

> <PUBCHEM_BONDANNOTATIONS>
10  13  8
11  14  8
11  16  8
12  13  8
14  15  8
15  18  8
16  19  8
18  19  8
4  20  8
4  7  8
5  20  8
5  8  8
6  7  8
6  8  8
6  9  8
8  12  8
9  10  8

> <PUBCHEM_BOND_DEF_STEREO_COUNT>
0

> <PUBCHEM_BOND_UDEF_STEREO_COUNT>
0

> <PUBCHEM_CACTVS_COMPLEXITY>
404

> <PUBCHEM_CACTVS_HBOND_ACCEPTOR>
2

> <PUBCHEM_CACTVS_HBOND_DONOR>
1

> <PUBCHEM_CACTVS_ROTATABLE_BOND>
5

> <PUBCHEM_CACTVS_SUBSKEYS>
AAADceB7MAAAAAAAAAAAAAAAAAAAAAAAAAA8YIAAAAAAAACx9AAAHgAQAAAADAihngY3+PbIFACoAybzbACCgCk1AqAJ2CE4bNiILvLA/dmGNQhs0API6ae8yGCOCAACQAACAAAQAASAAAQAAAAAAAAAAA==

> <PUBCHEM_CACTVS_TAUTO_COUNT>
3

> <PUBCHEM_CACTVS_TPSA>
64.1

> <PUBCHEM_COMPONENT_COUNT>
1

> <PUBCHEM_COMPOUND_CANONICALIZED>
1

> <PUBCHEM_COMPOUND_CID>
721013

> <PUBCHEM_COORDINATE_TYPE>
1
5
255

> <PUBCHEM_EXACT_MASS>
307.132077

> <PUBCHEM_HEAVY_ATOM_COUNT>
23

> <PUBCHEM_ISOTOPIC_ATOM_COUNT>
0

> <PUBCHEM_IUPAC_CAS_NAME>
3-[(6-methyl-4-quinazolinyl)amino]benzoic acid ethyl ester

> <PUBCHEM_IUPAC_INCHI>
InChI=1S/C18H17N3O2/c1-3-23-18(22)13-5-4-6-14(10-13)21-17-15-9-12(2)7-8-16(15)19-11-20-17/h4-11H,3H2,1-2H3,(H,19,20,21)

> <PUBCHEM_IUPAC_INCHIKEY>
LWFRPABFRKFROJ-UHFFFAOYSA-N

> <PUBCHEM_IUPAC_NAME>
ethyl 3-[(6-methylquinazolin-4-yl)amino]benzoate

> <PUBCHEM_IUPAC_OPENEYE_NAME>
ethyl 3-[(6-methylquinazolin-4-yl)amino]benzoate

> <PUBCHEM_IUPAC_SYSTEMATIC_NAME>
ethyl 3-[(6-methylquinazolin-4-yl)amino]benzoate

> <PUBCHEM_IUPAC_TRADITIONAL_NAME>
3-[(6-methylquinazolin-4-yl)amino]benzoic acid ethyl ester

> <PUBCHEM_MOLECULAR_FORMULA>
C18H17N3O2

> <PUBCHEM_MOLECULAR_WEIGHT>
307.34648

> <PUBCHEM_MONOISOTOPIC_WEIGHT>
307.132077

> <PUBCHEM_OPENEYE_CAN_SMILES>
CCOC(=O)C1=CC(=CC=C1)NC2=NC=NC3=C2C=C(C=C3)C

> <PUBCHEM_OPENEYE_ISO_SMILES>
CCOC(=O)C1=CC(=CC=C1)NC2=NC=NC3=C2C=C(C=C3)C

> <PUBCHEM_TOTAL_CHARGE>
0

> <PUBCHEM_XLOGP3_AA>
4

$$$$
Largest isolated from Written by BCL::WriteToMDL,7951074
JMcorina  04211410293D 1   1.00000     0.00000 
CORINA 3.49 0026  01.06.2011
 48 49  0  0  0  0  0  0  0  0999 V2000
   -2.2530    3.5333    5.1637 Cl  0  0  0  1  0  0  0  0  0  0  0  0
   -0.1257    1.4296    0.1226 O   0  0  0  1  0  0  0  0  0  0  0  0
   -1.0090   -2.1080    0.3468 O   0  0  0  1  0  0  0  0  0  0  0  0
   -2.1131   -0.2030    0.5352 O   0  0  0  1  0  0  0  0  0  0  0  0
   -0.8801   -4.7216    0.3596 O   0  0  0  1  0  0  0  0  0  0  0  0
   -3.0128   -5.1621    0.7833 N   0  0  0  1  0  0  0  0  0  0  0  0
    0.1867    0.0358    0.0817 C   0  0  0  1  0  0  0  0  0  0  0  0
    0.7484   -0.3208   -1.2961 C   0  0  0  1  0  0  0  0  0  0  0  0
    1.2281   -0.2852    1.1557 C   0  0  0  1  0  0  0  0  0  0  0  0
   -1.0628   -0.7668    0.3379 C   0  0  0  1  0  0  0  0  0  0  0  0
   -4.0752   -7.3519    1.0230 C   0  0  0  1  0  0  0  0  0  0  0  0
   -2.7663   -6.6060    0.7560 C   0  0  0  1  0  0  0  0  0  0  0  0
   -3.8217   -8.8372    0.9950 C   0  0  0  1  0  0  0  0  0  0  0  0
   -0.6193    1.9173    1.2913 C   0  0  0  1  0  0  0  0  0  0  0  0
   -2.2512   -2.8159    0.6002 C   0  0  0  1  0  0  0  0  0  0  0  0
   -1.9976   -4.3011    0.5721 C   0  0  0  1  0  0  0  0  0  0  0  0
   -3.4756   -9.5013    2.1569 C   0  0  0  1  0  0  0  0  0  0  0  0
   -3.9408   -9.5364   -0.1915 C   0  0  0  1  0  0  0  0  0  0  0  0
   -0.8289    3.2804    1.4417 C   0  0  0  1  0  0  0  0  0  0  0  0
   -0.9195    1.0521    2.3333 C   0  0  0  1  0  0  0  0  0  0  0  0
   -3.2430  -10.8637    2.1311 C   0  0  0  1  0  0  0  0  0  0  0  0
   -3.7083  -10.8988   -0.2173 C   0  0  0  1  0  0  0  0  0  0  0  0
   -3.3570  -11.5620    0.9436 C   0  0  0  1  0  0  0  0  0  0  0  0
   -1.3306    3.7742    2.6303 C   0  0  0  1  0  0  0  0  0  0  0  0
   -1.4211    1.5498    3.5204 C   0  0  0  1  0  0  0  0  0  0  0  0
   -1.6236    2.9102    3.6706 C   0  0  0  1  0  0  0  0  0  0  0  0
    1.6964    0.1956   -1.4468 H   0  0  0  1  0  0  0  0  0  0  0  0
    0.9190    0.1539    2.1042 H   0  0  0  1  0  0  0  0  0  0  0  0
    1.3144   -1.3661    1.2666 H   0  0  0  1  0  0  0  0  0  0  0  0
    2.1929    0.1280    0.8613 H   0  0  0  1  0  0  0  0  0  0  0  0
    0.9076   -1.3974   -1.3560 H   0  0  0  1  0  0  0  0  0  0  0  0
    0.0413   -0.0147   -2.0670 H   0  0  0  1  0  0  0  0  0  0  0  0
   -4.4623   -7.0678    2.0016 H   0  0  0  1  0  0  0  0  0  0  0  0
   -4.8041   -7.0932    0.2549 H   0  0  0  1  0  0  0  0  0  0  0  0
   -2.3793   -6.8901   -0.2225 H   0  0  0  1  0  0  0  0  0  0  0  0
   -2.0375   -6.8647    1.5241 H   0  0  0  1  0  0  0  0  0  0  0  0
   -2.6382   -2.5317    1.5787 H   0  0  0  1  0  0  0  0  0  0  0  0
   -2.9800   -2.5571   -0.1679 H   0  0  0  1  0  0  0  0  0  0  0  0
   -3.9066   -4.8258    0.9533 H   0  0  0  1  0  0  0  0  0  0  0  0
   -3.3865   -8.9557    3.0847 H   0  0  0  1  0  0  0  0  0  0  0  0
   -4.2159   -9.0183   -1.0984 H   0  0  0  1  0  0  0  0  0  0  0  0
   -0.5996    3.9551    0.6301 H   0  0  0  1  0  0  0  0  0  0  0  0
   -0.7615   -0.0098    2.2164 H   0  0  0  1  0  0  0  0  0  0  0  0
   -2.9719  -11.3825    3.0388 H   0  0  0  1  0  0  0  0  0  0  0  0
   -3.8017  -11.4452   -1.1442 H   0  0  0  1  0  0  0  0  0  0  0  0
   -3.1749  -12.6264    0.9235 H   0  0  0  1  0  0  0  0  0  0  0  0
   -1.4939    4.8353    2.7477 H   0  0  0  1  0  0  0  0  0  0  0  0
   -1.6549    0.8765    4.3318 H   0  0  0  1  0  0  0  0  0  0  0  0
  1 26  1  0  0  0  0
  2  7  1  0  0  0  0
  2 14  1  0  0  0  0
  3 10  1  0  0  0  0
  3 15  1  0  0  0  0
  4 10  2  0  0  0  0
  5 16  2  0  0  0  0
  6 12  1  0  0  0  0
  6 16  1  0  0  0  0
  6 39  1  0  0  0  0
  7  8  1  0  0  0  0
  7  9  1  0  0  0  0
  7 10  1  0  0  0  0
  8 27  1  0  0  0  0
  8 31  1  0  0  0  0
  8 32  1  0  0  0  0
  9 28  1  0  0  0  0
  9 29  1  0  0  0  0
  9 30  1  0  0  0  0
 11 12  1  0  0  0  0
 11 13  1  0  0  0  0
 11 33  1  0  0  0  0
 11 34  1  0  0  0  0
 12 35  1  0  0  0  0
 12 36  1  0  0  0  0
 13 17  4  0  0  0  0
 13 18  4  0  0  0  0
 14 19  4  0  0  0  0
 14 20  4  0  0  0  0
 15 16  1  0  0  0  0
 15 37  1  0  0  0  0
 15 38  1  0  0  0  0
 17 21  4  0  0  0  0
 17 40  1  0  0  0  0
 18 22  4  0  0  0  0
 18 41  1  0  0  0  0
 19 24  4  0  0  0  0
 19 42  1  0  0  0  0
 20 25  4  0  0  0  0
 20 43  1  0  0  0  0
 21 23  4  0  0  0  0
 21 44  1  0  0  0  0
 22 23  4  0  0  0  0
 22 45  1  0  0  0  0
 23 46  1  0  0  0  0
 24 26  4  0  0  0  0
 24 47  1  0  0  0  0
 25 26  4  0  0  0  0
 25 48  1  0  0  0  0
M  END
> <Activity>
0.01

> <Mapped(file=2032.csv.activities,property=Cached(PUBCHEM_COMPOUND_CID))>
100

> <MatchIndices>
86 

> <PUBCHEM_ATOM_DEF_STEREO_COUNT>
0

> <PUBCHEM_ATOM_UDEF_STEREO_COUNT>
0

> <PUBCHEM_BONDANNOTATIONS>
13  17  8
13  18  8
14  19  8
14  20  8
17  21  8
18  22  8
19  24  8
20  25  8
21  23  8
22  23  8
24  26  8
25  26  8

> <PUBCHEM_BOND_DEF_STEREO_COUNT>
0

> <PUBCHEM_BOND_UDEF_STEREO_COUNT>
0

> <PUBCHEM_CACTVS_COMPLEXITY>
455

> <PUBCHEM_CACTVS_HBOND_ACCEPTOR>
4

> <PUBCHEM_CACTVS_HBOND_DONOR>
1

> <PUBCHEM_CACTVS_ROTATABLE_BOND>
9

> <PUBCHEM_CACTVS_SUBSKEYS>
AAADceB6OAAEAAAAAAAAAAAAAAAAAAAAAAAwYAAAAAAAAAABQAAAHgIQAAAADEbhmCYyDoLABACIAiHSGAICCAAgJQAIiIFOCogPJiKFsx+HOCCk1hGaqAeQwIAOACAAAAAAAAAAQAAAAAAAAAAAAAAAAA==

> <PUBCHEM_CACTVS_TAUTO_COUNT>
2

> <PUBCHEM_CACTVS_TPSA>
64.6

> <PUBCHEM_COMPONENT_COUNT>
1

> <PUBCHEM_COMPOUND_CANONICALIZED>
1

> <PUBCHEM_COMPOUND_CID>
7951074

> <PUBCHEM_COORDINATE_TYPE>
1
5
255

> <PUBCHEM_EXACT_MASS>
375.123736

> <PUBCHEM_HEAVY_ATOM_COUNT>
26

> <PUBCHEM_ISOTOPIC_ATOM_COUNT>
0

> <PUBCHEM_IUPAC_CAS_NAME>
2-(4-chlorophenoxy)-2-methylpropanoic acid [2-oxo-2-(2-phenylethylamino)ethyl] ester

> <PUBCHEM_IUPAC_INCHI>
InChI=1S/C20H22ClNO4/c1-20(2,26-17-10-8-16(21)9-11-17)19(24)25-14-18(23)22-13-12-15-6-4-3-5-7-15/h3-11H,12-14H2,1-2H3,(H,22,23)

> <PUBCHEM_IUPAC_INCHIKEY>
MIVHNZPPALTKLQ-UHFFFAOYSA-N

> <PUBCHEM_IUPAC_NAME>
[2-oxo-2-(2-phenylethylamino)ethyl] 2-(4-chlorophenoxy)-2-methylpropanoate

> <PUBCHEM_IUPAC_OPENEYE_NAME>
[2-oxo-2-(2-phenylethylamino)ethyl] 2-(4-chlorophenoxy)-2-methyl-propanoate

> <PUBCHEM_IUPAC_SYSTEMATIC_NAME>
[2-oxidanylidene-2-(2-phenylethylamino)ethyl] 2-(4-chloranylphenoxy)-2-methyl-propanoate

> <PUBCHEM_IUPAC_TRADITIONAL_NAME>
2-(4-chlorophenoxy)-2-methyl-propionic acid [2-keto-2-(phenethylamino)ethyl] ester

> <PUBCHEM_MOLECULAR_FORMULA>
C20H22ClNO4

> <PUBCHEM_MOLECULAR_WEIGHT>
375.84598

> <PUBCHEM_MONOISOTOPIC_WEIGHT>
375.123736

> <PUBCHEM_OPENEYE_CAN_SMILES>
CC(C)(C(=O)OCC(=O)NCCC1=CC=CC=C1)OC2=CC=C(C=C2)Cl

> <PUBCHEM_OPENEYE_ISO_SMILES>
CC(C)(C(=O)OCC(=O)NCCC1=CC=CC=C1)OC2=CC=C(C=C2)Cl

> <PUBCHEM_TOTAL_CHARGE>
0

> <PUBCHEM_XLOGP3_AA>
4.3

$$$$
Largest isolated from Written by BCL::WriteToMDL,2598144
JMcorina  04211410293D 1   1.00000     0.00000 
CORINA 3.49 0026  01.06.2011
 42 44  0  0  0  0  0  0  0  0999 V2000
    5.5080    4.4578    0.5789 O   0  0  0  1  0  0  0  0  0  0  0  0
   -0.0169    1.3967    0.0097 N   0  0  0  1  0  0  0  0  0  0  0  0
    0.0021   -0.0041    0.0020 N   0  0  0  1  0  0  0  0  0  0  0  0
    4.4578    5.9583   -0.6776 N   0  0  0  1  0  0  0  0  0  0  0  0
    1.1015    2.2359    0.0035 C   0  0  0  1  0  0  0  0  0  0  0  0
   -1.3158    1.7943    0.0183 C   0  0  0  1  0  0  0  0  0  0  0  0
    3.3178    3.8992   -0.0083 C   0  0  0  1  0  0  0  0  0  0  0  0
   -2.0847    0.6811    0.0161 C   0  0  0  1  0  0  0  0  0  0  0  0
   -1.2346   -0.4307    0.0107 C   0  0  0  1  0  0  0  0  0  0  0  0
    2.2552    1.8591    0.6823 C   0  0  0  1  0  0  0  0  0  0  0  0
    1.0594    3.4428   -0.6860 C   0  0  0  1  0  0  0  0  0  0  0  0
    3.3585    2.6834    0.6787 C   0  0  0  1  0  0  0  0  0  0  0  0
    2.1593    4.2716   -0.6946 C   0  0  0  1  0  0  0  0  0  0  0  0
    5.6294    6.8377   -0.6837 C   0  0  0  1  0  0  0  0  0  0  0  0
   -1.8108    3.2176    0.0289 C   0  0  0  1  0  0  0  0  0  0  0  0
    4.4988    4.7857   -0.0144 C   0  0  0  1  0  0  0  0  0  0  0  0
    5.3252    8.0742   -1.4897 C   0  0  0  1  0  0  0  0  0  0  0  0
   -1.6698   -1.8735    0.0069 C   0  0  0  1  0  0  0  0  0  0  0  0
    4.7823    9.1855   -0.8724 C   0  0  0  1  0  0  0  0  0  0  0  0
    5.5944    8.0990   -2.8454 C   0  0  0  1  0  0  0  0  0  0  0  0
    4.5033   10.3196   -1.6117 C   0  0  0  1  0  0  0  0  0  0  0  0
    5.3154    9.2332   -3.5848 C   0  0  0  1  0  0  0  0  0  0  0  0
    4.7675   10.3427   -2.9684 C   0  0  0  1  0  0  0  0  0  0  0  0
   -3.1643    0.6550    0.0213 H   0  0  0  1  0  0  0  0  0  0  0  0
    2.2860    0.9191    1.2131 H   0  0  0  1  0  0  0  0  0  0  0  0
    0.1632    3.7303   -1.2157 H   0  0  0  1  0  0  0  0  0  0  0  0
    4.2526    2.3923    1.2100 H   0  0  0  1  0  0  0  0  0  0  0  0
    2.1242    5.2109   -1.2264 H   0  0  0  1  0  0  0  0  0  0  0  0
    5.8754    7.1223    0.3394 H   0  0  0  1  0  0  0  0  0  0  0  0
    6.4752    6.3132   -1.1282 H   0  0  0  1  0  0  0  0  0  0  0  0
   -1.9351    3.5667   -0.9961 H   0  0  0  1  0  0  0  0  0  0  0  0
   -2.7682    3.2655    0.5477 H   0  0  0  1  0  0  0  0  0  0  0  0
   -1.0870    3.8501    0.5429 H   0  0  0  1  0  0  0  0  0  0  0  0
    3.6525    6.2198   -1.1510 H   0  0  0  1  0  0  0  0  0  0  0  0
   -1.7660   -2.2267    1.0335 H   0  0  0  1  0  0  0  0  0  0  0  0
   -2.6312   -1.9617   -0.4993 H   0  0  0  1  0  0  0  0  0  0  0  0
   -0.9271   -2.4756   -0.5165 H   0  0  0  1  0  0  0  0  0  0  0  0
    4.5758    9.1675    0.1876 H   0  0  0  1  0  0  0  0  0  0  0  0
    6.0230    7.2325   -3.3268 H   0  0  0  1  0  0  0  0  0  0  0  0
    4.0784   11.1876   -1.1295 H   0  0  0  1  0  0  0  0  0  0  0  0
    5.5260    9.2528   -4.6438 H   0  0  0  1  0  0  0  0  0  0  0  0
    4.5492   11.2287   -3.5461 H   0  0  0  1  0  0  0  0  0  0  0  0
  1 16  2  0  0  0  0
  2  3  4  0  0  0  0
  2  5  1  0  0  0  0
  2  6  4  0  0  0  0
  3  9  4  0  0  0  0
  4 14  1  0  0  0  0
  4 16  1  0  0  0  0
  4 34  1  0  0  0  0
  5 10  4  0  0  0  0
  5 11  4  0  0  0  0
  6  8  4  0  0  0  0
  6 15  1  0  0  0  0
  7 12  4  0  0  0  0
  7 13  4  0  0  0  0
  7 16  1  0  0  0  0
  8  9  4  0  0  0  0
  8 24  1  0  0  0  0
  9 18  1  0  0  0  0
 10 12  4  0  0  0  0
 10 25  1  0  0  0  0
 11 13  4  0  0  0  0
 11 26  1  0  0  0  0
 12 27  1  0  0  0  0
 13 28  1  0  0  0  0
 14 17  1  0  0  0  0
 14 29  1  0  0  0  0
 14 30  1  0  0  0  0
 15 31  1  0  0  0  0
 15 32  1  0  0  0  0
 15 33  1  0  0  0  0
 17 19  4  0  0  0  0
 17 20  4  0  0  0  0
 18 35  1  0  0  0  0
 18 36  1  0  0  0  0
 18 37  1  0  0  0  0
 19 21  4  0  0  0  0
 19 38  1  0  0  0  0
 20 22  4  0  0  0  0
 20 39  1  0  0  0  0
 21 23  4  0  0  0  0
 21 40  1  0  0  0  0
 22 23  4  0  0  0  0
 22 41  1  0  0  0  0
 23 42  1  0  0  0  0
M  END
> <Activity>
0.01

> <Mapped(file=2032.csv.activities,property=Cached(PUBCHEM_COMPOUND_CID))>
100

> <MatchIndices>
16 

> <PUBCHEM_ATOM_DEF_STEREO_COUNT>
0

> <PUBCHEM_ATOM_UDEF_STEREO_COUNT>
0

> <PUBCHEM_BONDANNOTATIONS>
10  12  8
11  13  8
17  19  8
17  20  8
19  21  8
2  3  8
2  6  8
20  22  8
21  23  8
22  23  8
3  9  8
5  10  8
5  11  8
6  8  8
7  12  8
7  13  8
8  9  8

> <PUBCHEM_BOND_DEF_STEREO_COUNT>
0

> <PUBCHEM_BOND_UDEF_STEREO_COUNT>
0

> <PUBCHEM_CACTVS_COMPLEXITY>
386

> <PUBCHEM_CACTVS_HBOND_ACCEPTOR>
2

> <PUBCHEM_CACTVS_HBOND_DONOR>
1

> <PUBCHEM_CACTVS_ROTATABLE_BOND>
4

> <PUBCHEM_CACTVS_SUBSKEYS>
AAADceB7IAAAAAAAAAAAAAAAAAAAAWAAAAAwYAAAAAAAAAAB0AAAHgAYAAAADAjBngQywJLIAACqAyVyVACSBCAlAgAYmKE4ZNgIIHLA1dGEpQhgjgDIyYcYiQCeCAAAAAAAAAAQAAAAAAAAAAAAAAAAAA==

> <PUBCHEM_CACTVS_TAUTO_COUNT>
2

> <PUBCHEM_CACTVS_TPSA>
46.9

> <PUBCHEM_COMPONENT_COUNT>
1

> <PUBCHEM_COMPOUND_CANONICALIZED>
1

> <PUBCHEM_COMPOUND_CID>
2598144

> <PUBCHEM_COORDINATE_TYPE>
1
5
255

> <PUBCHEM_EXACT_MASS>
305.152812

> <PUBCHEM_HEAVY_ATOM_COUNT>
23

> <PUBCHEM_ISOTOPIC_ATOM_COUNT>
0

> <PUBCHEM_IUPAC_CAS_NAME>
4-(3,5-dimethyl-1-pyrazolyl)-N-(phenylmethyl)benzamide

> <PUBCHEM_IUPAC_INCHI>
InChI=1S/C19H19N3O/c1-14-12-15(2)22(21-14)18-10-8-17(9-11-18)19(23)20-13-16-6-4-3-5-7-16/h3-12H,13H2,1-2H3,(H,20,23)

> <PUBCHEM_IUPAC_INCHIKEY>
VQBNQZQADKAYEJ-UHFFFAOYSA-N

> <PUBCHEM_IUPAC_NAME>
N-benzyl-4-(3,5-dimethylpyrazol-1-yl)benzamide

> <PUBCHEM_IUPAC_OPENEYE_NAME>
N-benzyl-4-(3,5-dimethylpyrazol-1-yl)benzamide

> <PUBCHEM_IUPAC_SYSTEMATIC_NAME>
4-(3,5-dimethylpyrazol-1-yl)-N-(phenylmethyl)benzamide

> <PUBCHEM_IUPAC_TRADITIONAL_NAME>
N-benzyl-4-(3,5-dimethylpyrazol-1-yl)benzamide

> <PUBCHEM_MOLECULAR_FORMULA>
C19H19N3O

> <PUBCHEM_MOLECULAR_WEIGHT>
305.37366

> <PUBCHEM_MONOISOTOPIC_WEIGHT>
305.152812

> <PUBCHEM_OPENEYE_CAN_SMILES>
CC1=CC(=NN1C2=CC=C(C=C2)C(=O)NCC3=CC=CC=C3)C

> <PUBCHEM_OPENEYE_ISO_SMILES>
CC1=CC(=NN1C2=CC=C(C=C2)C(=O)NCC3=CC=CC=C3)C

> <PUBCHEM_TOTAL_CHARGE>
0

> <PUBCHEM_XLOGP3_AA>
3.5

$$$$
Largest isolated from Written by BCL::WriteToMDL,9551932
JMcorina  04211410293D 1   1.00000     0.00000 
CORINA 3.49 0026  01.06.2011
 36 38  0  0  0  0  0  0  0  0999 V2000
   -0.0104    1.7907    0.1805 S   0  0  0  1  0  0  0  0  0  0  0  0
    1.7685    1.5126   -2.0578 O   0  0  0  1  0  0  0  0  0  0  0  0
   -3.3914   -0.7199    1.5400 N   0  0  0  1  0  0  0  0  0  0  0  0
    0.0021   -0.0041    0.0020 C   0  0  0  1  0  0  0  0  0  0  0  0
   -1.4377   -0.5161    0.0776 C   0  0  0  1  0  0  0  0  0  0  0  0
    0.6155   -0.4668   -1.3024 C   0  0  0  1  0  0  0  0  0  0  0  0
   -2.0091   -0.2283    1.4674 C   0  0  0  1  0  0  0  0  0  0  0  0
    1.3438    0.2499   -2.2126 C   0  0  0  1  0  0  0  0  0  0  0  0
    1.6942    2.2228    0.1506 C   0  0  0  1  0  0  0  0  0  0  0  0
    0.3565   -1.8177   -1.5733 C   0  0  0  1  0  0  0  0  0  0  0  0
    2.4284    1.9927   -0.9848 C   0  0  0  1  0  0  0  0  0  0  0  0
    1.7272   -0.3471   -3.4233 C   0  0  0  1  0  0  0  0  0  0  0  0
    0.7645   -2.4120   -2.7429 C   0  0  0  1  0  0  0  0  0  0  0  0
    1.4409   -1.6649   -3.6901 C   0  0  0  1  0  0  0  0  0  0  0  0
    2.2955    2.7865    1.2703 C   0  0  0  1  0  0  0  0  0  0  0  0
    3.7857    2.2633   -1.0190 C   0  0  0  1  0  0  0  0  0  0  0  0
   -3.9738   -0.4602    2.8634 C   0  0  0  1  0  0  0  0  0  0  0  0
    3.6473    3.0816    1.2333 C   0  0  0  1  0  0  0  0  0  0  0  0
    4.3919    2.8113    0.1004 C   0  0  0  1  0  0  0  0  0  0  0  0
    0.5702   -0.4344    0.8267 H   0  0  0  1  0  0  0  0  0  0  0  0
   -2.0428   -0.0115   -0.6756 H   0  0  0  1  0  0  0  0  0  0  0  0
   -1.4513   -1.5905   -0.1055 H   0  0  0  1  0  0  0  0  0  0  0  0
   -1.9954    0.8461    1.6505 H   0  0  0  1  0  0  0  0  0  0  0  0
   -1.4040   -0.7329    2.2206 H   0  0  0  1  0  0  0  0  0  0  0  0
   -0.1778   -2.4071   -0.8428 H   0  0  0  1  0  0  0  0  0  0  0  0
    2.2567    0.2398   -4.1593 H   0  0  0  1  0  0  0  0  0  0  0  0
   -3.9580   -0.3150    0.8099 H   0  0  0  1  0  0  0  0  0  0  0  0
    0.5575   -3.4567   -2.9219 H   0  0  0  1  0  0  0  0  0  0  0  0
    1.7402   -2.1110   -4.6270 H   0  0  0  1  0  0  0  0  0  0  0  0
    1.7150    2.9919    2.1576 H   0  0  0  1  0  0  0  0  0  0  0  0
    4.3643    2.0499   -1.9057 H   0  0  0  1  0  0  0  0  0  0  0  0
   -4.9973   -0.8341    2.8897 H   0  0  0  1  0  0  0  0  0  0  0  0
   -3.3823   -0.9665    3.6263 H   0  0  0  1  0  0  0  0  0  0  0  0
   -3.9738    0.6126    3.0562 H   0  0  0  1  0  0  0  0  0  0  0  0
    4.1233    3.5258    2.0950 H   0  0  0  1  0  0  0  0  0  0  0  0
    5.4500    3.0277    0.0876 H   0  0  0  1  0  0  0  0  0  0  0  0
  1  4  1  0  0  0  0
  1  9  1  0  0  0  0
  2  8  1  0  0  0  0
  2 11  1  0  0  0  0
  3  7  1  0  0  0  0
  3 17  1  0  0  0  0
  3 27  1  0  0  0  0
  4  5  1  0  0  0  0
  4  6  1  0  0  0  0
  4 20  1  0  0  0  0
  5  7  1  0  0  0  0
  5 21  1  0  0  0  0
  5 22  1  0  0  0  0
  6  8  4  0  0  0  0
  6 10  4  0  0  0  0
  7 23  1  0  0  0  0
  7 24  1  0  0  0  0
  8 12  4  0  0  0  0
  9 11  4  0  0  0  0
  9 15  4  0  0  0  0
 10 13  4  0  0  0  0
 10 25  1  0  0  0  0
 11 16  4  0  0  0  0
 12 14  4  0  0  0  0
 12 26  1  0  0  0  0
 13 14  4  0  0  0  0
 13 28  1  0  0  0  0
 14 29  1  0  0  0  0
 15 18  4  0  0  0  0
 15 30  1  0  0  0  0
 16 19  4  0  0  0  0
 16 31  1  0  0  0  0
 17 32  1  0  0  0  0
 17 33  1  0  0  0  0
 17 34  1  0  0  0  0
 18 19  4  0  0  0  0
 18 35  1  0  0  0  0
 19 36  1  0  0  0  0
M  END
> <Activity>
0.01

> <Mapped(file=2032.csv.activities,property=Cached(PUBCHEM_COMPOUND_CID))>
100

> <MatchIndices>
222 

> <PUBCHEM_ATOM_DEF_STEREO_COUNT>
0

> <PUBCHEM_ATOM_UDEF_STEREO_COUNT>
1

> <PUBCHEM_BONDANNOTATIONS>
10  12  8
10  14  8
12  16  8
13  15  8
13  19  8
14  17  8
15  20  8
16  18  8
17  18  8
19  22  8
20  23  8
22  23  8
8  9  3

> <PUBCHEM_BOND_DEF_STEREO_COUNT>
0

> <PUBCHEM_BOND_UDEF_STEREO_COUNT>
0

> <PUBCHEM_CACTVS_COMPLEXITY>
358

> <PUBCHEM_CACTVS_HBOND_ACCEPTOR>
7

> <PUBCHEM_CACTVS_HBOND_DONOR>
3

> <PUBCHEM_CACTVS_ROTATABLE_BOND>
4

> <PUBCHEM_CACTVS_SUBSKEYS>
AAADceB6OABAAAAAAAAAAAAAAAAAAAAAAAAwYAAABIAAAAABQAAAHgQQCAAADATF2ASyD4LABgiIAiDSCAICCAAgKBAIiJpOCIgNJiKksRqGOCCk0BEpqAeQ0KIOAAAAAAAIIAAAAAAAABBAAAAAAAAAAA==

> <PUBCHEM_CACTVS_TAUTO_COUNT>
1

> <PUBCHEM_CACTVS_TPSA>
121

> <PUBCHEM_COMPONENT_COUNT>
2

> <PUBCHEM_COMPOUND_CANONICALIZED>
1

> <PUBCHEM_COMPOUND_CID>
9551932

> <PUBCHEM_COORDINATE_TYPE>
1
5
255

> <PUBCHEM_EXACT_MASS>
361.098394

> <PUBCHEM_HEAVY_ATOM_COUNT>
25

> <PUBCHEM_ISOTOPIC_ATOM_COUNT>
0

> <PUBCHEM_IUPAC_CAS_NAME>
2-(6H-benzo[b][1,5]benzoxathiepin-6-yl)-N-methylethanamine; oxalic acid

> <PUBCHEM_IUPAC_INCHI>
InChI=1S/C16H17NOS.C2H2O4/c1-17-11-10-15-12-6-2-3-7-13(12)18-14-8-4-5-9-16(14)19-15;3-1(4)2(5)6/h2-9,15,17H,10-11H2,1H3;(H,3,4)(H,5,6)

> <PUBCHEM_IUPAC_INCHIKEY>
JEILQYZJCYDQNO-UHFFFAOYSA-N

> <PUBCHEM_IUPAC_NAME>
2-(6H-benzo[b][1,5]benzoxathiepin-6-yl)-N-methylethanamine; oxalic acid

> <PUBCHEM_IUPAC_OPENEYE_NAME>
2-(6H-benzo[b][1,5]benzoxathiepin-6-yl)-N-methyl-ethanamine; oxalic acid

> <PUBCHEM_IUPAC_SYSTEMATIC_NAME>
2-(6H-benzo[b][1,5]benzoxathiepin-6-yl)-N-methyl-ethanamine; ethanedioic acid

> <PUBCHEM_IUPAC_TRADITIONAL_NAME>
2-(6H-benzo[b][1,5]benzoxathiepin-6-yl)ethyl-methyl-amine; oxalic acid

> <PUBCHEM_MOLECULAR_FORMULA>
C18H19NO5S

> <PUBCHEM_MOLECULAR_WEIGHT>
361.41216

> <PUBCHEM_MONOISOTOPIC_WEIGHT>
361.098394

> <PUBCHEM_OPENEYE_CAN_SMILES>
CNCCC1C2=CC=CC=C2OC3=CC=CC=C3S1.C(=O)(C(=O)O)O

> <PUBCHEM_OPENEYE_ISO_SMILES>
CNCCC1C2=CC=CC=C2OC3=CC=CC=C3S1.C(=O)(C(=O)O)O

> <PUBCHEM_TOTAL_CHARGE>
0

$$$$
Largest isolated from Written by BCL::WriteToMDL,2954747
JMcorina  04211410293D 1   1.00000     0.00000 
CORINA 3.49 0026  01.06.2011
 41 42  0  0  0  0  0  0  0  0999 V2000
   -2.8709  -10.9233    6.2791 Cl  0  0  0  1  0  0  0  0  0  0  0  0
   -4.9692   -3.9077    1.1505 S   0  0  0  1  0  0  0  0  0  0  0  0
   -0.0164    1.3548    0.0095 O   0  0  0  1  0  0  0  0  0  0  0  0
   -2.3289   -4.0332    0.8901 N   0  0  0  1  0  0  0  0  0  0  0  0
   -3.3018   -5.6476    2.2673 N   0  0  0  1  0  0  0  0  0  0  0  0
   -2.4615   -2.8694    0.0102 C   0  0  0  1  0  0  0  0  0  0  0  0
   -1.1679   -2.0963    0.0015 C   0  0  0  1  0  0  0  0  0  0  0  0
   -2.7851   -3.3379   -1.4099 C   0  0  0  1  0  0  0  0  0  0  0  0
   -1.1893   -0.7153    0.0096 C   0  0  0  1  0  0  0  0  0  0  0  0
    0.0396   -2.7702   -0.0092 C   0  0  0  1  0  0  0  0  0  0  0  0
   -3.4237   -4.5770    1.4578 C   0  0  0  1  0  0  0  0  0  0  0  0
   -4.4918   -6.2387    2.8843 C   0  0  0  1  0  0  0  0  0  0  0  0
    0.0021   -0.0041    0.0020 C   0  0  0  1  0  0  0  0  0  0  0  0
   -4.0851   -7.4137    3.7357 C   0  0  0  1  0  0  0  0  0  0  0  0
    1.2280   -2.0639   -0.0164 C   0  0  0  1  0  0  0  0  0  0  0  0
    1.2119   -0.6824   -0.0136 C   0  0  0  1  0  0  0  0  0  0  0  0
   -3.7711   -7.2252    5.0688 C   0  0  0  1  0  0  0  0  0  0  0  0
   -4.0317   -8.6805    3.1849 C   0  0  0  1  0  0  0  0  0  0  0  0
   -3.3980   -8.3024    5.8502 C   0  0  0  1  0  0  0  0  0  0  0  0
   -3.6596   -9.7587    3.9656 C   0  0  0  1  0  0  0  0  0  0  0  0
   -3.3393   -9.5697    5.2982 C   0  0  0  1  0  0  0  0  0  0  0  0
    1.2479    2.0208    0.0010 C   0  0  0  1  0  0  0  0  0  0  0  0
   -3.2651   -2.2289    0.3735 H   0  0  0  1  0  0  0  0  0  0  0  0
   -1.4533   -4.4124    1.0642 H   0  0  0  1  0  0  0  0  0  0  0  0
   -3.7208   -3.8971   -1.4036 H   0  0  0  1  0  0  0  0  0  0  0  0
   -2.8837   -2.4720   -2.0646 H   0  0  0  1  0  0  0  0  0  0  0  0
   -1.9815   -3.9785   -1.7732 H   0  0  0  1  0  0  0  0  0  0  0  0
   -2.1326   -0.1894    0.0214 H   0  0  0  1  0  0  0  0  0  0  0  0
    0.0543   -3.8501   -0.0114 H   0  0  0  1  0  0  0  0  0  0  0  0
   -4.9868   -5.4931    3.5065 H   0  0  0  1  0  0  0  0  0  0  0  0
   -5.1764   -6.5742    2.1052 H   0  0  0  1  0  0  0  0  0  0  0  0
   -2.4261   -6.0268    2.4413 H   0  0  0  1  0  0  0  0  0  0  0  0
    2.1698   -2.5925   -0.0247 H   0  0  0  1  0  0  0  0  0  0  0  0
    2.1406   -0.1310   -0.0196 H   0  0  0  1  0  0  0  0  0  0  0  0
   -3.8170   -6.2359    5.4996 H   0  0  0  1  0  0  0  0  0  0  0  0
   -4.2811   -8.8278    2.1445 H   0  0  0  1  0  0  0  0  0  0  0  0
   -3.1521   -8.1549    6.8914 H   0  0  0  1  0  0  0  0  0  0  0  0
   -3.6179  -10.7483    3.5351 H   0  0  0  1  0  0  0  0  0  0  0  0
    1.8173    1.7308    0.8840 H   0  0  0  1  0  0  0  0  0  0  0  0
    1.8003    1.7403   -0.8958 H   0  0  0  1  0  0  0  0  0  0  0  0
    1.0905    3.0993    0.0083 H   0  0  0  1  0  0  0  0  0  0  0  0
  1 21  1  0  0  0  0
  2 11  2  0  0  0  0
  3 13  1  0  0  0  0
  3 22  1  0  0  0  0
  4  6  1  0  0  0  0
  4 11  1  0  0  0  0
  4 24  1  0  0  0  0
  5 11  1  0  0  0  0
  5 12  1  0  0  0  0
  5 32  1  0  0  0  0
  6  7  1  0  0  0  0
  6  8  1  0  0  0  0
  6 23  1  0  0  0  0
  7  9  4  0  0  0  0
  7 10  4  0  0  0  0
  8 25  1  0  0  0  0
  8 26  1  0  0  0  0
  8 27  1  0  0  0  0
  9 13  4  0  0  0  0
  9 28  1  0  0  0  0
 10 15  4  0  0  0  0
 10 29  1  0  0  0  0
 12 14  1  0  0  0  0
 12 30  1  0  0  0  0
 12 31  1  0  0  0  0
 13 16  4  0  0  0  0
 14 17  4  0  0  0  0
 14 18  4  0  0  0  0
 15 16  4  0  0  0  0
 15 33  1  0  0  0  0
 16 34  1  0  0  0  0
 17 19  4  0  0  0  0
 17 35  1  0  0  0  0
 18 20  4  0  0  0  0
 18 36  1  0  0  0  0
 19 21  4  0  0  0  0
 19 37  1  0  0  0  0
 20 21  4  0  0  0  0
 20 38  1  0  0  0  0
 22 39  1  0  0  0  0
 22 40  1  0  0  0  0
 22 41  1  0  0  0  0
M  END
> <Activity>
0.01

> <Mapped(file=2032.csv.activities,property=Cached(PUBCHEM_COMPOUND_CID))>
100

> <MatchIndices>
118 

> <PUBCHEM_ATOM_DEF_STEREO_COUNT>
0

> <PUBCHEM_ATOM_UDEF_STEREO_COUNT>
1

> <PUBCHEM_BONDANNOTATIONS>
10  15  8
13  16  8
14  17  8
14  18  8
15  16  8
17  19  8
18  20  8
19  21  8
20  21  8
6  23  3
7  10  8
7  9  8
9  13  8

> <PUBCHEM_BOND_DEF_STEREO_COUNT>
0

> <PUBCHEM_BOND_UDEF_STEREO_COUNT>
0

> <PUBCHEM_CACTVS_COMPLEXITY>
348

> <PUBCHEM_CACTVS_HBOND_ACCEPTOR>
2

> <PUBCHEM_CACTVS_HBOND_DONOR>
2

> <PUBCHEM_CACTVS_ROTATABLE_BOND>
5

> <PUBCHEM_CACTVS_SUBSKEYS>
AAADceB7IABEAAAAAAAAAAAAAAAAAAAAAAAwYAAAAAAAAAABQAAAHgYQAAAADC7BmCYzBoLABACEAiBCAACCCAAgJQkIiIAODoiMJiKFsxuEMChs0BMIqAewwLAOBAABAAAAAAAIAAIAAAAAAAAAAAAAAA==

> <PUBCHEM_CACTVS_TAUTO_COUNT>
3

> <PUBCHEM_CACTVS_TPSA>
65.4

> <PUBCHEM_COMPONENT_COUNT>
1

> <PUBCHEM_COMPOUND_CANONICALIZED>
1

> <PUBCHEM_COMPOUND_CID>
2954747

> <PUBCHEM_COORDINATE_TYPE>
1
5
255

> <PUBCHEM_EXACT_MASS>
334.090662

> <PUBCHEM_HEAVY_ATOM_COUNT>
22

> <PUBCHEM_ISOTOPIC_ATOM_COUNT>
0

> <PUBCHEM_IUPAC_CAS_NAME>
1-[(4-chlorophenyl)methyl]-3-[1-(3-methoxyphenyl)ethyl]thiourea

> <PUBCHEM_IUPAC_INCHI>
InChI=1S/C17H19ClN2OS/c1-12(14-4-3-5-16(10-14)21-2)20-17(22)19-11-13-6-8-15(18)9-7-13/h3-10,12H,11H2,1-2H3,(H2,19,20,22)

> <PUBCHEM_IUPAC_INCHIKEY>
QTYNOGHLGAXYIX-UHFFFAOYSA-N

> <PUBCHEM_IUPAC_NAME>
1-[(4-chlorophenyl)methyl]-3-[1-(3-methoxyphenyl)ethyl]thiourea

> <PUBCHEM_IUPAC_OPENEYE_NAME>
1-[(4-chlorophenyl)methyl]-3-[1-(3-methoxyphenyl)ethyl]thiourea

> <PUBCHEM_IUPAC_SYSTEMATIC_NAME>
1-[(4-chlorophenyl)methyl]-3-[1-(3-methoxyphenyl)ethyl]thiourea

> <PUBCHEM_IUPAC_TRADITIONAL_NAME>
1-(4-chlorobenzyl)-3-[1-(3-methoxyphenyl)ethyl]thiourea

> <PUBCHEM_MOLECULAR_FORMULA>
C17H19ClN2OS

> <PUBCHEM_MOLECULAR_WEIGHT>
334.86356

> <PUBCHEM_MONOISOTOPIC_WEIGHT>
334.090662

> <PUBCHEM_OPENEYE_CAN_SMILES>
CC(C1=CC(=CC=C1)OC)NC(=S)NCC2=CC=C(C=C2)Cl

> <PUBCHEM_OPENEYE_ISO_SMILES>
CC(C1=CC(=CC=C1)OC)NC(=S)NCC2=CC=C(C=C2)Cl

> <PUBCHEM_TOTAL_CHARGE>
0

> <PUBCHEM_XLOGP3_AA>
4

$$$$
Largest isolated from Written by BCL::WriteToMDL,2923756
JMcorina  04211410293D 1   1.00000     0.00000 
CORINA 3.49 0026  01.06.2011
 37 37  0  0  0  0  0  0  0  0999 V2000
    0.9398    1.9571   -2.8369 Br  0  0  0  1  0  0  0  0  0  0  0  0
    1.0545    1.9760    2.7087 Cl  0  0  0  1  0  0  0  0  0  0  0  0
   -0.0173    1.4248    0.0099 O   0  0  0  1  0  0  0  0  0  0  0  0
   -2.8280   -4.0619    0.0072 N   0  0  0  1  0  0  0  0  0  0  0  0
   -1.4126   -2.0635    0.0045 C   0  0  0  1  0  0  0  0  0  0  0  0
   -1.4333   -0.5336    0.0129 C   0  0  0  1  0  0  0  0  0  0  0  0
   -2.8479   -2.5931    0.0153 C   0  0  0  1  0  0  0  0  0  0  0  0
    0.0021   -0.0041    0.0020 C   0  0  0  1  0  0  0  0  0  0  0  0
   -4.1921   -4.6070    0.0173 C   0  0  0  1  0  0  0  0  0  0  0  0
    1.1854    2.0584    0.0018 C   0  0  0  1  0  0  0  0  0  0  0  0
    1.7891    2.3889   -1.2034 C   0  0  0  1  0  0  0  0  0  0  0  0
    1.8092    2.3811    1.1987 C   0  0  0  1  0  0  0  0  0  0  0  0
    3.6339    3.3488   -0.0147 C   0  0  0  1  0  0  0  0  0  0  0  0
    3.0118    3.0335   -1.2087 C   0  0  0  1  0  0  0  0  0  0  0  0
    3.0324    3.0260    1.1874 C   0  0  0  1  0  0  0  0  0  0  0  0
   -4.1315   -6.1127    0.0087 C   0  0  0  1  0  0  0  0  0  0  0  0
    4.9671    4.0512   -0.0239 C   0  0  0  1  0  0  0  0  0  0  0  0
   -4.7464   -6.7984    0.9402 C   0  0  0  1  0  0  0  0  0  0  0  0
   -0.9024   -2.4150   -0.8923 H   0  0  0  1  0  0  0  0  0  0  0  0
   -0.8854   -2.4246    0.8875 H   0  0  0  1  0  0  0  0  0  0  0  0
   -1.9605   -0.1726   -0.8702 H   0  0  0  1  0  0  0  0  0  0  0  0
   -1.9435   -0.1821    0.9097 H   0  0  0  1  0  0  0  0  0  0  0  0
   -3.3751   -2.2320   -0.8677 H   0  0  0  1  0  0  0  0  0  0  0  0
   -3.3581   -2.2415    0.9121 H   0  0  0  1  0  0  0  0  0  0  0  0
    0.5123   -0.3556   -0.8948 H   0  0  0  1  0  0  0  0  0  0  0  0
    0.5293   -0.3651    0.8851 H   0  0  0  1  0  0  0  0  0  0  0  0
   -2.3045   -4.4121   -0.7810 H   0  0  0  1  0  0  0  0  0  0  0  0
   -4.7116   -4.2694    0.9142 H   0  0  0  1  0  0  0  0  0  0  0  0
   -4.7286   -4.2599   -0.8657 H   0  0  0  1  0  0  0  0  0  0  0  0
    3.4819    3.2908   -2.1464 H   0  0  0  1  0  0  0  0  0  0  0  0
    3.5182    3.2777    2.1185 H   0  0  0  1  0  0  0  0  0  0  0  0
   -3.5811   -6.6265   -0.7655 H   0  0  0  1  0  0  0  0  0  0  0  0
    4.8097    5.1297   -0.0167 H   0  0  0  1  0  0  0  0  0  0  0  0
    5.5366    3.7612    0.8591 H   0  0  0  1  0  0  0  0  0  0  0  0
    5.5194    3.7706   -0.9207 H   0  0  0  1  0  0  0  0  0  0  0  0
   -4.7030   -7.8775    0.9340 H   0  0  0  1  0  0  0  0  0  0  0  0
   -5.2969   -6.2846    1.7145 H   0  0  0  1  0  0  0  0  0  0  0  0
  1 11  1  0  0  0  0
  2 12  1  0  0  0  0
  3  8  1  0  0  0  0
  3 10  1  0  0  0  0
  4  7  1  0  0  0  0
  4  9  1  0  0  0  0
  4 27  1  0  0  0  0
  5  6  1  0  0  0  0
  5  7  1  0  0  0  0
  5 19  1  0  0  0  0
  5 20  1  0  0  0  0
  6  8  1  0  0  0  0
  6 21  1  0  0  0  0
  6 22  1  0  0  0  0
  7 23  1  0  0  0  0
  7 24  1  0  0  0  0
  8 25  1  0  0  0  0
  8 26  1  0  0  0  0
  9 16  1  0  0  0  0
  9 28  1  0  0  0  0
  9 29  1  0  0  0  0
 10 11  4  0  0  0  0
 10 12  4  0  0  0  0
 11 14  4  0  0  0  0
 12 15  4  0  0  0  0
 13 14  4  0  0  0  0
 13 15  4  0  0  0  0
 13 17  1  0  0  0  0
 14 30  1  0  0  0  0
 15 31  1  0  0  0  0
 16 18  2  0  0  0  0
 16 32  1  0  0  0  0
 17 33  1  0  0  0  0
 17 34  1  0  0  0  0
 17 35  1  0  0  0  0
 18 36  1  0  0  0  0
 18 37  1  0  0  0  0
M  END
> <Activity>
0.01

> <Mapped(file=2032.csv.activities,property=Cached(PUBCHEM_COMPOUND_CID))>
100

> <MatchIndices>
61 

> <PUBCHEM_ATOM_DEF_STEREO_COUNT>
0

> <PUBCHEM_ATOM_UDEF_STEREO_COUNT>
0

> <PUBCHEM_BONDANNOTATIONS>
14  15  8
14  16  8
15  18  8
16  19  8
17  18  8
17  19  8

> <PUBCHEM_BOND_DEF_STEREO_COUNT>
0

> <PUBCHEM_BOND_UDEF_STEREO_COUNT>
0

> <PUBCHEM_CACTVS_COMPLEXITY>
311

> <PUBCHEM_CACTVS_HBOND_ACCEPTOR>
6

> <PUBCHEM_CACTVS_HBOND_DONOR>
3

> <PUBCHEM_CACTVS_ROTATABLE_BOND>
9

> <PUBCHEM_CACTVS_SUBSKEYS>
AAADceB6OAAEEAAAAAAAAAAAAAAAAAAAAAAwAAAAAAAAAAABAAAAHgJQCAABrAbhmCYyDoLABgCIAiDSCAKCCAAgJUQIiIBMC6gNJiOFsxqGOCCk0BGJqhegwAAOIAAAMABADABAAABgAIAYAAAAAAAAAA==

> <PUBCHEM_CACTVS_TAUTO_COUNT>
1

> <PUBCHEM_CACTVS_TPSA>
95.9

> <PUBCHEM_COMPONENT_COUNT>
2

> <PUBCHEM_COMPOUND_CANONICALIZED>
1

> <PUBCHEM_COMPOUND_CID>
2923756

> <PUBCHEM_COORDINATE_TYPE>
1
5
255

> <PUBCHEM_EXACT_MASS>
421.029163

> <PUBCHEM_HEAVY_ATOM_COUNT>
24

> <PUBCHEM_ISOTOPIC_ATOM_COUNT>
0

> <PUBCHEM_IUPAC_CAS_NAME>
4-(2-bromo-6-chloro-4-methylphenoxy)-N-prop-2-enyl-1-butanamine; oxalic acid

> <PUBCHEM_IUPAC_INCHI>
InChI=1S/C14H19BrClNO.C2H2O4/c1-3-6-17-7-4-5-8-18-14-12(15)9-11(2)10-13(14)16;3-1(4)2(5)6/h3,9-10,17H,1,4-8H2,2H3;(H,3,4)(H,5,6)

> <PUBCHEM_IUPAC_INCHIKEY>
DKVSLEWCZLPDDW-UHFFFAOYSA-N

> <PUBCHEM_IUPAC_NAME>
4-(2-bromo-6-chloro-4-methylphenoxy)-N-prop-2-enylbutan-1-amine; oxalic acid

> <PUBCHEM_IUPAC_OPENEYE_NAME>
N-allyl-4-(2-bromo-6-chloro-4-methyl-phenoxy)butan-1-amine; oxalic acid

> <PUBCHEM_IUPAC_SYSTEMATIC_NAME>
4-(2-bromanyl-6-chloranyl-4-methyl-phenoxy)-N-prop-2-enyl-butan-1-amine; ethanedioic acid

> <PUBCHEM_IUPAC_TRADITIONAL_NAME>
allyl-[4-(2-bromo-6-chloro-4-methyl-phenoxy)butyl]amine; oxalic acid

> <PUBCHEM_MOLECULAR_FORMULA>
C16H21BrClNO5

> <PUBCHEM_MOLECULAR_WEIGHT>
422.69864

> <PUBCHEM_MONOISOTOPIC_WEIGHT>
421.029163

> <PUBCHEM_OPENEYE_CAN_SMILES>
CC1=CC(=C(C(=C1)Br)OCCCCNCC=C)Cl.C(=O)(C(=O)O)O

> <PUBCHEM_OPENEYE_ISO_SMILES>
CC1=CC(=C(C(=C1)Br)OCCCCNCC=C)Cl.C(=O)(C(=O)O)O

> <PUBCHEM_TOTAL_CHARGE>
0

$$$$
Largest isolated from Written by BCL::WriteToMDL,711084
JMcorina  04211410293D 1   1.00000     0.00000 
CORINA 3.49 0026  01.06.2011
 33 34  0  0  0  0  0  0  0  0999 V2000
   -0.2102    1.5056    0.1457 S   0  0  0  1  0  0  0  0  0  0  0  0
   -3.5862    3.8832    4.3298 F   0  0  0  1  0  0  0  0  0  0  0  0
   -0.3217    0.0966    0.2927 O   0  0  0  1  0  0  0  0  0  0  0  0
    1.0310    2.1959    0.1912 O   0  0  0  1  0  0  0  0  0  0  0  0
   -0.9002    1.8797   -1.3124 N   0  0  0  1  0  0  0  0  0  0  0  0
   -0.6119    3.1666   -1.9505 C   0  0  0  1  0  0  0  0  0  0  0  0
   -1.7571    0.9685   -1.9339 C   0  0  0  1  0  0  0  0  0  0  0  0
   -1.2221    2.2182    1.3999 C   0  0  0  1  0  0  0  0  0  0  0  0
    0.5337    2.9949   -2.9500 C   0  0  0  1  0  0  0  0  0  0  0  0
   -1.2959   -0.2947   -2.2820 C   0  0  0  1  0  0  0  0  0  0  0  0
   -3.0740    1.3214   -2.2001 C   0  0  0  1  0  0  0  0  0  0  0  0
   -2.2669    1.4917    1.9400 C   0  0  0  1  0  0  0  0  0  0  0  0
   -0.9671    3.5013    1.8469 C   0  0  0  1  0  0  0  0  0  0  0  0
   -2.1458   -1.1933   -2.8964 C   0  0  0  1  0  0  0  0  0  0  0  0
   -3.9186    0.4180   -2.8147 C   0  0  0  1  0  0  0  0  0  0  0  0
   -3.0612    2.0496    2.9237 C   0  0  0  1  0  0  0  0  0  0  0  0
   -1.7598    4.0611    2.8308 C   0  0  0  1  0  0  0  0  0  0  0  0
   -3.4546   -0.8367   -3.1651 C   0  0  0  1  0  0  0  0  0  0  0  0
   -2.8100    3.3366    3.3685 C   0  0  0  1  0  0  0  0  0  0  0  0
   -1.5005    3.5199   -2.4736 H   0  0  0  1  0  0  0  0  0  0  0  0
   -0.3250    3.8930   -1.1902 H   0  0  0  1  0  0  0  0  0  0  0  0
    0.2468    2.2685   -3.7103 H   0  0  0  1  0  0  0  0  0  0  0  0
    0.7482    3.9523   -3.4247 H   0  0  0  1  0  0  0  0  0  0  0  0
    1.4223    2.6415   -2.4269 H   0  0  0  1  0  0  0  0  0  0  0  0
   -0.2738   -0.5737   -2.0727 H   0  0  0  1  0  0  0  0  0  0  0  0
   -3.4371    2.3010   -1.9264 H   0  0  0  1  0  0  0  0  0  0  0  0
   -2.4626    0.4879    1.5929 H   0  0  0  1  0  0  0  0  0  0  0  0
   -0.1478    4.0662    1.4273 H   0  0  0  1  0  0  0  0  0  0  0  0
   -1.7878   -2.1755   -3.1677 H   0  0  0  1  0  0  0  0  0  0  0  0
   -4.9426    0.6916   -3.0217 H   0  0  0  1  0  0  0  0  0  0  0  0
   -3.8778    1.4822    3.3451 H   0  0  0  1  0  0  0  0  0  0  0  0
   -1.5606    5.0636    3.1796 H   0  0  0  1  0  0  0  0  0  0  0  0
   -4.1172   -1.5413   -3.6457 H   0  0  0  1  0  0  0  0  0  0  0  0
  1  3  2  0  0  0  0
  1  4  2  0  0  0  0
  1  5  1  0  0  0  0
  1  8  1  0  0  0  0
  2 19  1  0  0  0  0
  5  6  1  0  0  0  0
  5  7  1  0  0  0  0
  6  9  1  0  0  0  0
  6 20  1  0  0  0  0
  6 21  1  0  0  0  0
  7 10  4  0  0  0  0
  7 11  4  0  0  0  0
  8 12  4  0  0  0  0
  8 13  4  0  0  0  0
  9 22  1  0  0  0  0
  9 23  1  0  0  0  0
  9 24  1  0  0  0  0
 10 14  4  0  0  0  0
 10 25  1  0  0  0  0
 11 15  4  0  0  0  0
 11 26  1  0  0  0  0
 12 16  4  0  0  0  0
 12 27  1  0  0  0  0
 13 17  4  0  0  0  0
 13 28  1  0  0  0  0
 14 18  4  0  0  0  0
 14 29  1  0  0  0  0
 15 18  4  0  0  0  0
 15 30  1  0  0  0  0
 16 19  4  0  0  0  0
 16 31  1  0  0  0  0
 17 19  4  0  0  0  0
 17 32  1  0  0  0  0
 18 33  1  0  0  0  0
M  END
> <Activity>
0.01

> <Mapped(file=2032.csv.activities,property=Cached(PUBCHEM_COMPOUND_CID))>
100

> <MatchIndices>
99 

> <PUBCHEM_ATOM_DEF_STEREO_COUNT>
0

> <PUBCHEM_ATOM_UDEF_STEREO_COUNT>
0

> <PUBCHEM_BONDANNOTATIONS>
10  14  8
11  15  8
12  16  8
13  17  8
14  18  8
15  18  8
16  19  8
17  19  8
7  10  8
7  11  8
8  12  8
8  13  8

> <PUBCHEM_BOND_DEF_STEREO_COUNT>
0

> <PUBCHEM_BOND_UDEF_STEREO_COUNT>
0

> <PUBCHEM_CACTVS_COMPLEXITY>
365

> <PUBCHEM_CACTVS_HBOND_ACCEPTOR>
4

> <PUBCHEM_CACTVS_HBOND_DONOR>
0

> <PUBCHEM_CACTVS_ROTATABLE_BOND>
4

> <PUBCHEM_CACTVS_SUBSKEYS>
AAADccByMQBAAAAAAAAAAAAAAAAAAAAAAAAwYAAAAAAAAAABQAAAHQQAQAAACAjBUAwywYIAAAKAACRCQHDCABAhAgAIiBgIZIgIICLAkZGEIAhggADIyAcQAAAAAAAAAAAAAAAAAAAAAAAAAAAAAAAAAA==

> <PUBCHEM_CACTVS_TAUTO_COUNT>
1

> <PUBCHEM_CACTVS_TPSA>
45.8

> <PUBCHEM_COMPONENT_COUNT>
1

> <PUBCHEM_COMPOUND_CANONICALIZED>
1

> <PUBCHEM_COMPOUND_CID>
711084

> <PUBCHEM_COORDINATE_TYPE>
1
5
255

> <PUBCHEM_EXACT_MASS>
279.072928

> <PUBCHEM_HEAVY_ATOM_COUNT>
19

> <PUBCHEM_ISOTOPIC_ATOM_COUNT>
0

> <PUBCHEM_IUPAC_CAS_NAME>
N-ethyl-4-fluoro-N-phenylbenzenesulfonamide

> <PUBCHEM_IUPAC_INCHI>
InChI=1S/C14H14FNO2S/c1-2-16(13-6-4-3-5-7-13)19(17,18)14-10-8-12(15)9-11-14/h3-11H,2H2,1H3

> <PUBCHEM_IUPAC_INCHIKEY>
NLPPRZFTFSBKLY-UHFFFAOYSA-N

> <PUBCHEM_IUPAC_NAME>
N-ethyl-4-fluoro-N-phenylbenzenesulfonamide

> <PUBCHEM_IUPAC_OPENEYE_NAME>
N-ethyl-4-fluoro-N-phenyl-benzenesulfonamide

> <PUBCHEM_IUPAC_SYSTEMATIC_NAME>
N-ethyl-4-fluoranyl-N-phenyl-benzenesulfonamide

> <PUBCHEM_IUPAC_TRADITIONAL_NAME>
N-ethyl-4-fluoro-N-phenyl-benzenesulfonamide

> <PUBCHEM_MOLECULAR_FORMULA>
C14H14FNO2S

> <PUBCHEM_MOLECULAR_WEIGHT>
279.329863

> <PUBCHEM_MONOISOTOPIC_WEIGHT>
279.072928

> <PUBCHEM_OPENEYE_CAN_SMILES>
CCN(C1=CC=CC=C1)S(=O)(=O)C2=CC=C(C=C2)F

> <PUBCHEM_OPENEYE_ISO_SMILES>
CCN(C1=CC=CC=C1)S(=O)(=O)C2=CC=C(C=C2)F

> <PUBCHEM_TOTAL_CHARGE>
0

> <PUBCHEM_XLOGP3_AA>
3.1

$$$$
Largest isolated from Written by BCL::WriteToMDL,5152
JMcorina  04211410293D 1   1.00000     0.00000 
CORINA 3.49 0026  01.06.2011
 67 68  0  0  0  0  0  0  0  0999 V2000
   -0.0173    1.4248    0.0099 O   0  0  0  1  0  0  0  0  0  0  0  0
   -4.8641   -8.6377   -1.1647 O   0  0  0  1  0  0  0  0  0  0  0  0
  -10.7756  -10.2845    0.0497 O   0  0  0  1  0  0  0  0  0  0  0  0
   -8.5516   -9.7683    3.6092 O   0  0  0  1  0  0  0  0  0  0  0  0
   -4.2427   -6.1213    0.0097 N   0  0  0  1  0  0  0  0  0  0  0  0
   -2.8479   -2.5931    0.0153 C   0  0  0  1  0  0  0  0  0  0  0  0
   -1.4126   -2.0635    0.0045 C   0  0  0  1  0  0  0  0  0  0  0  0
   -2.8272   -4.1229    0.0069 C   0  0  0  1  0  0  0  0  0  0  0  0
   -1.4333   -0.5336    0.0129 C   0  0  0  1  0  0  0  0  0  0  0  0
   -4.2626   -4.6525    0.0178 C   0  0  0  1  0  0  0  0  0  0  0  0
   -5.6068   -6.6664    0.0198 C   0  0  0  1  0  0  0  0  0  0  0  0
    0.0021   -0.0041    0.0020 C   0  0  0  1  0  0  0  0  0  0  0  0
   -5.5452   -8.1951    0.0110 C   0  0  0  1  0  0  0  0  0  0  0  0
    1.1386    3.5471    0.0102 C   0  0  0  1  0  0  0  0  0  0  0  0
    2.5277    4.1884    0.0004 C   0  0  0  1  0  0  0  0  0  0  0  0
    1.2801    2.0237    0.0007 C   0  0  0  1  0  0  0  0  0  0  0  0
   -6.9446   -8.7543    0.0214 C   0  0  0  1  0  0  0  0  0  0  0  0
    2.3862    5.7118    0.0099 C   0  0  0  1  0  0  0  0  0  0  0  0
   -7.5352   -9.1137    1.2185 C   0  0  0  1  0  0  0  0  0  0  0  0
    3.7544    6.3434    0.0003 C   0  0  0  1  0  0  0  0  0  0  0  0
   -7.6378   -8.9017   -1.1661 C   0  0  0  1  0  0  0  0  0  0  0  0
   -8.8181   -9.6265    1.2307 C   0  0  0  1  0  0  0  0  0  0  0  0
   -8.9207   -9.4135   -1.1592 C   0  0  0  1  0  0  0  0  0  0  0  0
   -9.5136   -9.7803    0.0404 C   0  0  0  1  0  0  0  0  0  0  0  0
    4.3705    6.6396   -1.2012 C   0  0  0  1  0  0  0  0  0  0  0  0
    4.3910    6.6319    1.1930 C   0  0  0  1  0  0  0  0  0  0  0  0
   -9.4610  -10.0190    2.5359 C   0  0  0  1  0  0  0  0  0  0  0  0
    5.6256    7.2189   -1.2101 C   0  0  0  1  0  0  0  0  0  0  0  0
    5.6460    7.2113    1.1841 C   0  0  0  1  0  0  0  0  0  0  0  0
    6.2644    7.5025   -0.0175 C   0  0  0  1  0  0  0  0  0  0  0  0
   -3.3581   -2.2415    0.9121 H   0  0  0  1  0  0  0  0  0  0  0  0
   -3.3751   -2.2320   -0.8677 H   0  0  0  1  0  0  0  0  0  0  0  0
   -0.8854   -2.4246    0.8875 H   0  0  0  1  0  0  0  0  0  0  0  0
   -0.9024   -2.4150   -0.8923 H   0  0  0  1  0  0  0  0  0  0  0  0
   -2.3170   -4.4744   -0.8899 H   0  0  0  1  0  0  0  0  0  0  0  0
   -2.3000   -4.4840    0.8900 H   0  0  0  1  0  0  0  0  0  0  0  0
   -1.9605   -0.1726   -0.8702 H   0  0  0  1  0  0  0  0  0  0  0  0
   -1.9435   -0.1821    0.9097 H   0  0  0  1  0  0  0  0  0  0  0  0
   -4.7898   -4.2914   -0.8653 H   0  0  0  1  0  0  0  0  0  0  0  0
   -4.7728   -4.3010    0.9146 H   0  0  0  1  0  0  0  0  0  0  0  0
   -6.1263   -6.3288    0.9166 H   0  0  0  1  0  0  0  0  0  0  0  0
   -6.1433   -6.3193   -0.8633 H   0  0  0  1  0  0  0  0  0  0  0  0
    0.5123   -0.3556   -0.8948 H   0  0  0  1  0  0  0  0  0  0  0  0
    0.5293   -0.3651    0.8851 H   0  0  0  1  0  0  0  0  0  0  0  0
   -3.7192   -6.4715   -0.7786 H   0  0  0  1  0  0  0  0  0  0  0  0
   -5.0087   -8.5422    0.8940 H   0  0  0  1  0  0  0  0  0  0  0  0
    0.6019    3.8566    0.9071 H   0  0  0  1  0  0  0  0  0  0  0  0
    0.5849    3.8661   -0.8728 H   0  0  0  1  0  0  0  0  0  0  0  0
    3.0814    3.8694    0.8835 H   0  0  0  1  0  0  0  0  0  0  0  0
    3.0644    3.8789   -0.8964 H   0  0  0  1  0  0  0  0  0  0  0  0
    1.8338    1.7047    0.8837 H   0  0  0  1  0  0  0  0  0  0  0  0
    1.8168    1.7143   -0.8961 H   0  0  0  1  0  0  0  0  0  0  0  0
    1.8325    6.0308   -0.8731 H   0  0  0  1  0  0  0  0  0  0  0  0
    1.8495    6.0213    0.9068 H   0  0  0  1  0  0  0  0  0  0  0  0
   -6.9933   -8.9938    2.1449 H   0  0  0  1  0  0  0  0  0  0  0  0
   -7.1759   -8.6160   -2.0996 H   0  0  0  1  0  0  0  0  0  0  0  0
   -5.2867   -8.3644   -1.9904 H   0  0  0  1  0  0  0  0  0  0  0  0
   -9.4618   -9.5281   -2.0869 H   0  0  0  1  0  0  0  0  0  0  0  0
    3.8715    6.4180   -2.1330 H   0  0  0  1  0  0  0  0  0  0  0  0
    3.9076    6.4049    2.1317 H   0  0  0  1  0  0  0  0  0  0  0  0
   -9.7122  -11.0794    2.5128 H   0  0  0  1  0  0  0  0  0  0  0  0
  -10.3685   -9.4338    2.6844 H   0  0  0  1  0  0  0  0  0  0  0  0
    6.1072    7.4496   -2.1488 H   0  0  0  1  0  0  0  0  0  0  0  0
    6.1432    7.4369    2.1159 H   0  0  0  1  0  0  0  0  0  0  0  0
    7.2451    7.9549   -0.0244 H   0  0  0  1  0  0  0  0  0  0  0  0
  -11.4666   -9.6137    0.1373 H   0  0  0  1  0  0  0  0  0  0  0  0
   -8.8997   -9.9981    4.4816 H   0  0  0  1  0  0  0  0  0  0  0  0
  1 12  1  0  0  0  0
  1 16  1  0  0  0  0
  2 13  1  0  0  0  0
  2 57  1  0  0  0  0
  3 24  1  0  0  0  0
  3 66  1  0  0  0  0
  4 27  1  0  0  0  0
  4 67  1  0  0  0  0
  5 10  1  0  0  0  0
  5 11  1  0  0  0  0
  5 45  1  0  0  0  0
  6  7  1  0  0  0  0
  6  8  1  0  0  0  0
  6 31  1  0  0  0  0
  6 32  1  0  0  0  0
  7  9  1  0  0  0  0
  7 33  1  0  0  0  0
  7 34  1  0  0  0  0
  8 10  1  0  0  0  0
  8 35  1  0  0  0  0
  8 36  1  0  0  0  0
  9 12  1  0  0  0  0
  9 37  1  0  0  0  0
  9 38  1  0  0  0  0
 10 39  1  0  0  0  0
 10 40  1  0  0  0  0
 11 13  1  0  0  0  0
 11 41  1  0  0  0  0
 11 42  1  0  0  0  0
 12 43  1  0  0  0  0
 12 44  1  0  0  0  0
 13 17  1  0  0  0  0
 13 46  1  0  0  0  0
 14 15  1  0  0  0  0
 14 16  1  0  0  0  0
 14 47  1  0  0  0  0
 14 48  1  0  0  0  0
 15 18  1  0  0  0  0
 15 49  1  0  0  0  0
 15 50  1  0  0  0  0
 16 51  1  0  0  0  0
 16 52  1  0  0  0  0
 17 19  4  0  0  0  0
 17 21  4  0  0  0  0
 18 20  1  0  0  0  0
 18 53  1  0  0  0  0
 18 54  1  0  0  0  0
 19 22  4  0  0  0  0
 19 55  1  0  0  0  0
 20 25  4  0  0  0  0
 20 26  4  0  0  0  0
 21 23  4  0  0  0  0
 21 56  1  0  0  0  0
 22 24  4  0  0  0  0
 22 27  1  0  0  0  0
 23 24  4  0  0  0  0
 23 58  1  0  0  0  0
 25 28  4  0  0  0  0
 25 59  1  0  0  0  0
 26 29  4  0  0  0  0
 26 60  1  0  0  0  0
 27 61  1  0  0  0  0
 27 62  1  0  0  0  0
 28 30  4  0  0  0  0
 28 63  1  0  0  0  0
 29 30  4  0  0  0  0
 29 64  1  0  0  0  0
 30 65  1  0  0  0  0
M  END
> <Activity>
0.01

> <Mapped(file=2032.csv.activities,property=Cached(PUBCHEM_COMPOUND_CID))>
100

> <MatchIndices>
144 

> <PUBCHEM_ATOM_DEF_STEREO_COUNT>
0

> <PUBCHEM_ATOM_UDEF_STEREO_COUNT>
1

> <PUBCHEM_BONDANNOTATIONS>
13  46  3
17  19  8
17  21  8
19  22  8
20  25  8
20  26  8
21  23  8
22  24  8
23  24  8
25  28  8
26  29  8
28  30  8
29  30  8

> <PUBCHEM_BOND_DEF_STEREO_COUNT>
0

> <PUBCHEM_BOND_UDEF_STEREO_COUNT>
0

> <PUBCHEM_CACTVS_COMPLEXITY>
403

> <PUBCHEM_CACTVS_HBOND_ACCEPTOR>
5

> <PUBCHEM_CACTVS_HBOND_DONOR>
4

> <PUBCHEM_CACTVS_ROTATABLE_BOND>
16

> <PUBCHEM_CACTVS_SUBSKEYS>
AAADcfB6OAAAAAAAAAAAAAAAAAAAAAAAAAAwYAAAAAAAAAABQAAAHgAQCAAADBThmAYwBoLABgCAAiBCAAACAAAgIAAIiIAOCIgKNyKCkROGcAAl0BGYmAeQ4PQOIAACAAAIAABAAAQAABAAAAAAAAAAAA==

> <PUBCHEM_CACTVS_TAUTO_COUNT>
3

> <PUBCHEM_CACTVS_TPSA>
82

> <PUBCHEM_COMPONENT_COUNT>
1

> <PUBCHEM_COMPOUND_CANONICALIZED>
1

> <PUBCHEM_COMPOUND_CID>
5152

> <PUBCHEM_COORDINATE_TYPE>
1
5
255

> <PUBCHEM_EXACT_MASS>
415.272259

> <PUBCHEM_HEAVY_ATOM_COUNT>
30

> <PUBCHEM_ISOTOPIC_ATOM_COUNT>
0

> <PUBCHEM_IUPAC_CAS_NAME>
2-(hydroxymethyl)-4-[1-hydroxy-2-[6-(4-phenylbutoxy)hexylamino]ethyl]phenol

> <PUBCHEM_IUPAC_INCHI>
InChI=1S/C25H37NO4/c27-20-23-18-22(13-14-24(23)28)25(29)19-26-15-7-1-2-8-16-30-17-9-6-12-21-10-4-3-5-11-21/h3-5,10-11,13-14,18,25-29H,1-2,6-9,12,15-17,19-20H2

> <PUBCHEM_IUPAC_INCHIKEY>
GIIZNNXWQWCKIB-UHFFFAOYSA-N

> <PUBCHEM_IUPAC_NAME>
2-(hydroxymethyl)-4-[1-hydroxy-2-[6-(4-phenylbutoxy)hexylamino]ethyl]phenol

> <PUBCHEM_IUPAC_OPENEYE_NAME>
2-(hydroxymethyl)-4-[1-hydroxy-2-[6-(4-phenylbutoxy)hexylamino]ethyl]phenol

> <PUBCHEM_IUPAC_SYSTEMATIC_NAME>
2-(hydroxymethyl)-4-[1-oxidanyl-2-[6-(4-phenylbutoxy)hexylamino]ethyl]phenol

> <PUBCHEM_IUPAC_TRADITIONAL_NAME>
4-[1-hydroxy-2-[6-(4-phenylbutoxy)hexylamino]ethyl]-2-methylol-phenol

> <PUBCHEM_MOLECULAR_FORMULA>
C25H37NO4

> <PUBCHEM_MOLECULAR_WEIGHT>
415.56558

> <PUBCHEM_MONOISOTOPIC_WEIGHT>
415.272259

> <PUBCHEM_OPENEYE_CAN_SMILES>
C1=CC=C(C=C1)CCCCOCCCCCCNCC(C2=CC(=C(C=C2)O)CO)O

> <PUBCHEM_OPENEYE_ISO_SMILES>
C1=CC=C(C=C1)CCCCOCCCCCCNCC(C2=CC(=C(C=C2)O)CO)O

> <PUBCHEM_TOTAL_CHARGE>
0

> <PUBCHEM_XLOGP3_AA>
3.9

$$$$
Largest isolated from Written by BCL::WriteToMDL,2738778
JMcorina  04211410293D 1   1.00000     0.00000 
CORINA 3.49 0026  01.06.2011
 33 35  0  0  0  0  0  0  0  0999 V2000
   -3.2602    3.1134    5.0922 Cl  0  0  0  1  0  0  0  0  0  0  0  0
   -0.0172    1.4168    0.0098 S   0  0  0  1  0  0  0  0  0  0  0  0
   -3.0882    3.7516   -5.0274 S   0  0  0  1  0  0  0  0  0  0  0  0
    1.1627    3.8209   -6.6037 S   0  0  0  1  0  0  0  0  0  0  0  0
    0.0021   -0.0041    0.0020 O   0  0  0  1  0  0  0  0  0  0  0  0
    1.1617    2.2101    0.0028 O   0  0  0  1  0  0  0  0  0  0  0  0
   -0.9002    1.8797   -1.3124 N   0  0  0  1  0  0  0  0  0  0  0  0
   -0.8014    3.5732   -4.0058 N   0  0  0  1  0  0  0  0  0  0  0  0
   -1.1366    3.3017   -1.5741 C   0  0  0  1  0  0  0  0  0  0  0  0
   -0.9297    1.8941    1.4396 C   0  0  0  1  0  0  0  0  0  0  0  0
   -1.6270    3.4775   -2.9882 C   0  0  0  1  0  0  0  0  0  0  0  0
   -1.8430    1.0206    1.9998 C   0  0  0  1  0  0  0  0  0  0  0  0
   -0.7278    3.1398    2.0040 C   0  0  0  1  0  0  0  0  0  0  0  0
   -1.3340    3.7237   -5.1873 C   0  0  0  1  0  0  0  0  0  0  0  0
   -2.9282    3.5461   -3.2843 C   0  0  0  1  0  0  0  0  0  0  0  0
   -0.5893    3.8495   -6.4502 C   0  0  0  1  0  0  0  0  0  0  0  0
   -2.5590    1.3945    3.1213 C   0  0  0  1  0  0  0  0  0  0  0  0
   -1.4426    3.5145    3.1260 C   0  0  0  1  0  0  0  0  0  0  0  0
   -2.3612    2.6431    3.6836 C   0  0  0  1  0  0  0  0  0  0  0  0
   -1.1450    4.0056   -7.6716 C   0  0  0  1  0  0  0  0  0  0  0  0
   -0.2407    4.1015   -8.7070 C   0  0  0  1  0  0  0  0  0  0  0  0
    1.0446    4.0257   -8.3463 C   0  0  0  1  0  0  0  0  0  0  0  0
   -1.8873    3.6790   -0.8796 H   0  0  0  1  0  0  0  0  0  0  0  0
   -0.2072    3.8551   -1.4403 H   0  0  0  1  0  0  0  0  0  0  0  0
   -1.2609    1.2094   -1.9136 H   0  0  0  1  0  0  0  0  0  0  0  0
   -1.9973    0.0460    1.5609 H   0  0  0  1  0  0  0  0  0  0  0  0
   -0.0111    3.8203    1.5683 H   0  0  0  1  0  0  0  0  0  0  0  0
   -3.7421    3.4864   -2.5769 H   0  0  0  1  0  0  0  0  0  0  0  0
   -3.2730    0.7123    3.5585 H   0  0  0  1  0  0  0  0  0  0  0  0
   -1.2848    4.4877    3.5669 H   0  0  0  1  0  0  0  0  0  0  0  0
   -2.2132    4.0512   -7.8245 H   0  0  0  1  0  0  0  0  0  0  0  0
   -0.5477    4.2282   -9.7347 H   0  0  0  1  0  0  0  0  0  0  0  0
    1.8841    4.0826   -9.0233 H   0  0  0  1  0  0  0  0  0  0  0  0
  1 19  1  0  0  0  0
  2  5  2  0  0  0  0
  2  6  2  0  0  0  0
  2  7  1  0  0  0  0
  2 10  1  0  0  0  0
  3 14  4  0  0  0  0
  3 15  4  0  0  0  0
  4 16  4  0  0  0  0
  4 22  4  0  0  0  0
  7  9  1  0  0  0  0
  7 25  1  0  0  0  0
  8 11  4  0  0  0  0
  8 14  4  0  0  0  0
  9 11  1  0  0  0  0
  9 23  1  0  0  0  0
  9 24  1  0  0  0  0
 10 12  4  0  0  0  0
 10 13  4  0  0  0  0
 11 15  4  0  0  0  0
 12 17  4  0  0  0  0
 12 26  1  0  0  0  0
 13 18  4  0  0  0  0
 13 27  1  0  0  0  0
 14 16  1  0  0  0  0
 15 28  1  0  0  0  0
 16 20  4  0  0  0  0
 17 19  4  0  0  0  0
 17 29  1  0  0  0  0
 18 19  4  0  0  0  0
 18 30  1  0  0  0  0
 20 21  4  0  0  0  0
 20 31  1  0  0  0  0
 21 22  4  0  0  0  0
 21 32  1  0  0  0  0
 22 33  1  0  0  0  0
M  END
> <Activity>
0.01

> <Mapped(file=2032.csv.activities,property=Cached(PUBCHEM_COMPOUND_CID))>
100

> <MatchIndices>
149 

> <PUBCHEM_ATOM_DEF_STEREO_COUNT>
0

> <PUBCHEM_ATOM_UDEF_STEREO_COUNT>
0

> <PUBCHEM_BONDANNOTATIONS>
10  12  8
10  13  8
11  15  8
12  17  8
13  18  8
16  20  8
17  19  8
18  19  8
20  21  8
21  22  8
3  14  8
3  15  8
4  16  8
4  22  8
8  11  8
8  14  8

> <PUBCHEM_BOND_DEF_STEREO_COUNT>
0

> <PUBCHEM_BOND_UDEF_STEREO_COUNT>
0

> <PUBCHEM_CACTVS_COMPLEXITY>
463

> <PUBCHEM_CACTVS_HBOND_ACCEPTOR>
5

> <PUBCHEM_CACTVS_HBOND_DONOR>
1

> <PUBCHEM_CACTVS_ROTATABLE_BOND>
5

> <PUBCHEM_CACTVS_SUBSKEYS>
AAADccBzMABkAAAAAAAAAAAAAAAAAWJAAAAwAAAAAAAAAAAB8AAAHAYQQAAACArFViSwgZJIEAqkASRiRHDD8LBhDzhIiLwwJpgIYKKhkxGUIAhggACoiAcQAAAAAAIAAAAAAAAABAAAAAAAAAAAAAAAAA==

> <PUBCHEM_CACTVS_TAUTO_COUNT>
1

> <PUBCHEM_CACTVS_TPSA>
124

> <PUBCHEM_COMPONENT_COUNT>
1

> <PUBCHEM_COMPOUND_CANONICALIZED>
1

> <PUBCHEM_COMPOUND_CID>
2738778

> <PUBCHEM_COORDINATE_TYPE>
1
5
255

> <PUBCHEM_EXACT_MASS>
369.967118

> <PUBCHEM_HEAVY_ATOM_COUNT>
22

> <PUBCHEM_ISOTOPIC_ATOM_COUNT>
0

> <PUBCHEM_IUPAC_CAS_NAME>
4-chloro-N-[(2-thiophen-2-yl-4-thiazolyl)methyl]benzenesulfonamide

> <PUBCHEM_IUPAC_INCHI>
InChI=1S/C14H11ClN2O2S3/c15-10-3-5-12(6-4-10)22(18,19)16-8-11-9-21-14(17-11)13-2-1-7-20-13/h1-7,9,16H,8H2

> <PUBCHEM_IUPAC_INCHIKEY>
MMZPFRDPFBXABJ-UHFFFAOYSA-N

> <PUBCHEM_IUPAC_NAME>
4-chloro-N-[(2-thiophen-2-yl-1,3-thiazol-4-yl)methyl]benzenesulfonamide

> <PUBCHEM_IUPAC_OPENEYE_NAME>
4-chloro-N-[[2-(2-thienyl)thiazol-4-yl]methyl]benzenesulfonamide

> <PUBCHEM_IUPAC_SYSTEMATIC_NAME>
4-chloranyl-N-[(2-thiophen-2-yl-1,3-thiazol-4-yl)methyl]benzenesulfonamide

> <PUBCHEM_IUPAC_TRADITIONAL_NAME>
4-chloro-N-[[2-(2-thienyl)thiazol-4-yl]methyl]benzenesulfonamide

> <PUBCHEM_MOLECULAR_FORMULA>
C14H11ClN2O2S3

> <PUBCHEM_MOLECULAR_WEIGHT>
370.89734

> <PUBCHEM_MONOISOTOPIC_WEIGHT>
369.967118

> <PUBCHEM_OPENEYE_CAN_SMILES>
C1=CSC(=C1)C2=NC(=CS2)CNS(=O)(=O)C3=CC=C(C=C3)Cl

> <PUBCHEM_OPENEYE_ISO_SMILES>
C1=CSC(=C1)C2=NC(=CS2)CNS(=O)(=O)C3=CC=C(C=C3)Cl

> <PUBCHEM_TOTAL_CHARGE>
0

> <PUBCHEM_XLOGP3_AA>
3.5

$$$$
Largest isolated from Written by BCL::WriteToMDL,9556823
JMcorina  04211410293D 1   1.00000     0.00000 
CORINA 3.49 0026  01.06.2011
 22 22  0  0  0  0  0  0  0  0999 V2000
   -1.6289    3.2299    0.0272 Cl  0  0  0  1  0  0  0  0  0  0  0  0
    1.0262    7.9317    0.0534 Cl  0  0  0  1  0  0  0  0  0  0  0  0
   -0.0154    1.2858    0.0091 N   0  0  0  1  0  0  0  0  0  0  0  0
    0.0021   -0.0041    0.0020 N   0  0  0  1  0  0  0  0  0  0  0  0
   -2.3271   -0.0087    0.0242 N   0  0  0  1  0  0  0  0  0  0  0  0
   -1.1113   -2.0500    0.0017 N   0  0  0  1  0  0  0  0  0  0  0  0
    1.0857    3.4250    0.0101 C   0  0  0  1  0  0  0  0  0  0  0  0
   -0.1335    4.1116    0.0254 C   0  0  0  1  0  0  0  0  0  0  0  0
    2.2852    4.1441    0.0083 C   0  0  0  1  0  0  0  0  0  0  0  0
   -0.1437    5.4916    0.0386 C   0  0  0  1  0  0  0  0  0  0  0  0
    2.2591    5.5223    0.0216 C   0  0  0  1  0  0  0  0  0  0  0  0
    1.0485    6.1959    0.0367 C   0  0  0  1  0  0  0  0  0  0  0  0
    1.1057    1.9536    0.0020 C   0  0  0  1  0  0  0  0  0  0  0  0
   -1.1299   -0.6783    0.0092 C   0  0  0  1  0  0  0  0  0  0  0  0
    3.2299    3.6208   -0.0032 H   0  0  0  1  0  0  0  0  0  0  0  0
   -1.0836    6.0234    0.0501 H   0  0  0  1  0  0  0  0  0  0  0  0
    3.1848    6.0784    0.0202 H   0  0  0  1  0  0  0  0  0  0  0  0
    2.0482    1.4263   -0.0098 H   0  0  0  1  0  0  0  0  0  0  0  0
   -2.3402    0.9612    0.0296 H   0  0  0  1  0  0  0  0  0  0  0  0
   -3.1604   -0.5051    0.0295 H   0  0  0  1  0  0  0  0  0  0  0  0
   -0.2648   -2.5235   -0.0090 H   0  0  0  1  0  0  0  0  0  0  0  0
   -1.9447   -2.5464    0.0070 H   0  0  0  1  0  0  0  0  0  0  0  0
  1  8  1  0  0  0  0
  2 12  1  0  0  0  0
  3  4  1  0  0  0  0
  3 13  2  0  0  0  0
  4 14  2  0  0  0  0
  5 14  1  0  0  0  0
  5 19  1  0  0  0  0
  5 20  1  0  0  0  0
  6 14  1  0  0  0  0
  6 21  1  0  0  0  0
  6 22  1  0  0  0  0
  7  8  4  0  0  0  0
  7  9  4  0  0  0  0
  7 13  1  0  0  0  0
  8 10  4  0  0  0  0
  9 11  4  0  0  0  0
  9 15  1  0  0  0  0
 10 12  4  0  0  0  0
 10 16  1  0  0  0  0
 11 12  4  0  0  0  0
 11 17  1  0  0  0  0
 13 18  1  0  0  0  0
M  END
> <Activity>
0.01

> <Mapped(file=2032.csv.activities,property=Cached(PUBCHEM_COMPOUND_CID))>
100

> <MatchIndices>
28 

> <PUBCHEM_ATOM_DEF_STEREO_COUNT>
0

> <PUBCHEM_ATOM_UDEF_STEREO_COUNT>
0

> <PUBCHEM_BONDANNOTATIONS>
10  12  8
11  12  8
7  8  8
7  9  8
8  10  8
9  11  8

> <PUBCHEM_BOND_DEF_STEREO_COUNT>
1

> <PUBCHEM_BOND_UDEF_STEREO_COUNT>
0

> <PUBCHEM_CACTVS_COMPLEXITY>
238

> <PUBCHEM_CACTVS_HBOND_ACCEPTOR>
2

> <PUBCHEM_CACTVS_HBOND_DONOR>
2

> <PUBCHEM_CACTVS_ROTATABLE_BOND>
2

> <PUBCHEM_CACTVS_SUBSKEYS>
AAADccBzgAAGAAAAAAAAAAAAAAAAAAAAAAAwAAAAAAAAAAABAAAAHAIYAAAADALBGCQxAIBAAACgAjBjIAACAAAgBQAIiAAgApgIIKKBExCAIAAggAAIiAcAgAAOBAAAAACBAAAIAAAAAQIAAAAAAAAAAA==

> <PUBCHEM_CACTVS_TAUTO_COUNT>
2

> <PUBCHEM_CACTVS_TPSA>
76.8

> <PUBCHEM_COMPONENT_COUNT>
1

> <PUBCHEM_COMPOUND_CANONICALIZED>
1

> <PUBCHEM_COMPOUND_CID>
9556823

> <PUBCHEM_COORDINATE_TYPE>
1
5
255

> <PUBCHEM_EXACT_MASS>
230.012602

> <PUBCHEM_HEAVY_ATOM_COUNT>
14

> <PUBCHEM_ISOTOPIC_ATOM_COUNT>
0

> <PUBCHEM_IUPAC_CAS_NAME>
2-[(E)-(2,4-dichlorophenyl)methylideneamino]guanidine

> <PUBCHEM_IUPAC_INCHI>
InChI=1S/C8H8Cl2N4/c9-6-2-1-5(7(10)3-6)4-13-14-8(11)12/h1-4H,(H4,11,12,14)/b13-4+

> <PUBCHEM_IUPAC_INCHIKEY>
WDPPSRUIMSQVFX-YIXHJXPBSA-N

> <PUBCHEM_IUPAC_NAME>
2-[(E)-(2,4-dichlorophenyl)methylideneamino]guanidine

> <PUBCHEM_IUPAC_OPENEYE_NAME>
2-[(E)-(2,4-dichlorophenyl)methyleneamino]guanidine

> <PUBCHEM_IUPAC_SYSTEMATIC_NAME>
2-[(E)-(2,4-dichlorophenyl)methylideneamino]guanidine

> <PUBCHEM_IUPAC_TRADITIONAL_NAME>
2-[(E)-(2,4-dichlorobenzylidene)amino]guanidine

> <PUBCHEM_MOLECULAR_FORMULA>
C8H8Cl2N4

> <PUBCHEM_MOLECULAR_WEIGHT>
231.08192

> <PUBCHEM_MONOISOTOPIC_WEIGHT>
230.012602

> <PUBCHEM_OPENEYE_CAN_SMILES>
C1=CC(=C(C=C1Cl)Cl)C=NN=C(N)N

> <PUBCHEM_OPENEYE_ISO_SMILES>
C1=CC(=C(C=C1Cl)Cl)/C=N/N=C(N)N

> <PUBCHEM_TOTAL_CHARGE>
0

> <PUBCHEM_XLOGP3_AA>
1.7

$$$$
Largest isolated from Written by BCL::WriteToMDL,826733
JMcorina  04211410293D 1   1.00000     0.00000 
CORINA 3.49 0026  01.06.2011
 33 34  0  0  0  0  0  0  0  0999 V2000
    1.6219    1.1901   -2.5417 Cl  0  0  0  1  0  0  0  0  0  0  0  0
    4.8046    1.6343    2.8102 Cl  0  0  0  1  0  0  0  0  0  0  0  0
    0.0706    1.1702    0.1911 S   0  0  0  1  0  0  0  0  0  0  0  0
   -2.6303    0.5050    1.2009 O   0  0  0  1  0  0  0  0  0  0  0  0
   -3.7212   -0.1594   -0.6165 N   0  0  0  1  0  0  0  0  0  0  0  0
   -1.5066   -1.0630   -0.1117 C   0  0  0  1  0  0  0  0  0  0  0  0
   -0.2043   -0.5377   -0.1440 C   0  0  0  1  0  0  0  0  0  0  0  0
   -2.6513   -0.1891    0.2026 C   0  0  0  1  0  0  0  0  0  0  0  0
   -1.7106   -2.4177   -0.3850 C   0  0  0  1  0  0  0  0  0  0  0  0
    0.8662   -1.3725   -0.4421 C   0  0  0  1  0  0  0  0  0  0  0  0
    1.8274    1.3021    0.1617 C   0  0  0  1  0  0  0  0  0  0  0  0
   -0.6370   -3.2280   -0.6837 C   0  0  0  1  0  0  0  0  0  0  0  0
    0.6481   -2.7091   -0.7045 C   0  0  0  1  0  0  0  0  0  0  0  0
   -4.8121    0.7849   -0.3625 C   0  0  0  1  0  0  0  0  0  0  0  0
   -3.7934   -1.0715   -1.7607 C   0  0  0  1  0  0  0  0  0  0  0  0
    2.5053    1.3106   -1.0522 C   0  0  0  1  0  0  0  0  0  0  0  0
    2.5378    1.4036    1.3512 C   0  0  0  1  0  0  0  0  0  0  0  0
    3.9157    1.5074    1.3244 C   0  0  0  1  0  0  0  0  0  0  0  0
    3.8832    1.4147   -1.0716 C   0  0  0  1  0  0  0  0  0  0  0  0
    4.5877    1.5107    0.1142 C   0  0  0  1  0  0  0  0  0  0  0  0
   -2.7088   -2.8295   -0.3619 H   0  0  0  1  0  0  0  0  0  0  0  0
    1.8698   -0.9742   -0.4688 H   0  0  0  1  0  0  0  0  0  0  0  0
   -0.7968   -4.2752   -0.8943 H   0  0  0  1  0  0  0  0  0  0  0  0
    1.4832   -3.3537   -0.9360 H   0  0  0  1  0  0  0  0  0  0  0  0
   -4.1973   -2.0304   -1.4361 H   0  0  0  1  0  0  0  0  0  0  0  0
   -4.4418   -0.6442   -2.5255 H   0  0  0  1  0  0  0  0  0  0  0  0
   -2.7946   -1.2184   -2.1717 H   0  0  0  1  0  0  0  0  0  0  0  0
   -4.5824    1.3754    0.5244 H   0  0  0  1  0  0  0  0  0  0  0  0
   -4.9263    1.4474   -1.2205 H   0  0  0  1  0  0  0  0  0  0  0  0
   -5.7392    0.2345   -0.2025 H   0  0  0  1  0  0  0  0  0  0  0  0
    2.0140    1.4017    2.2956 H   0  0  0  1  0  0  0  0  0  0  0  0
    4.4104    1.4210   -2.0142 H   0  0  0  1  0  0  0  0  0  0  0  0
    5.6645    1.5923    0.0961 H   0  0  0  1  0  0  0  0  0  0  0  0
  1 16  1  0  0  0  0
  2 18  1  0  0  0  0
  3  7  1  0  0  0  0
  3 11  1  0  0  0  0
  4  8  2  0  0  0  0
  5  8  1  0  0  0  0
  5 14  1  0  0  0  0
  5 15  1  0  0  0  0
  6  7  4  0  0  0  0
  6  8  1  0  0  0  0
  6  9  4  0  0  0  0
  7 10  4  0  0  0  0
  9 12  4  0  0  0  0
  9 21  1  0  0  0  0
 10 13  4  0  0  0  0
 10 22  1  0  0  0  0
 11 16  4  0  0  0  0
 11 17  4  0  0  0  0
 12 13  4  0  0  0  0
 12 23  1  0  0  0  0
 13 24  1  0  0  0  0
 14 28  1  0  0  0  0
 14 29  1  0  0  0  0
 14 30  1  0  0  0  0
 15 25  1  0  0  0  0
 15 26  1  0  0  0  0
 15 27  1  0  0  0  0
 16 19  4  0  0  0  0
 17 18  4  0  0  0  0
 17 31  1  0  0  0  0
 18 20  4  0  0  0  0
 19 20  4  0  0  0  0
 19 32  1  0  0  0  0
 20 33  1  0  0  0  0
M  END
> <Activity>
0.01

> <Mapped(file=2032.csv.activities,property=Cached(PUBCHEM_COMPOUND_CID))>
100

> <MatchIndices>
156 

> <PUBCHEM_ATOM_DEF_STEREO_COUNT>
0

> <PUBCHEM_ATOM_UDEF_STEREO_COUNT>
0

> <PUBCHEM_BONDANNOTATIONS>
10  13  8
11  16  8
11  17  8
12  13  8
16  19  8
17  18  8
18  20  8
19  20  8
6  7  8
6  9  8
7  10  8
9  12  8

> <PUBCHEM_BOND_DEF_STEREO_COUNT>
0

> <PUBCHEM_BOND_UDEF_STEREO_COUNT>
0

> <PUBCHEM_CACTVS_COMPLEXITY>
340

> <PUBCHEM_CACTVS_HBOND_ACCEPTOR>
2

> <PUBCHEM_CACTVS_HBOND_DONOR>
0

> <PUBCHEM_CACTVS_ROTATABLE_BOND>
3

> <PUBCHEM_CACTVS_SUBSKEYS>
AAADccByIABGAAAAAAAAAAAAAAAAAAAAAAAwYAAAAAAAAAABQAAAHgYAAAAADAKB2CQyAYMAAAiIAiFSEACCAAAkDRAIiBkIBsgIIDKhlxGEIQhgggAoiYcYiACOAAAQABAEAIAAACAAIAgBAAAAAAAAAA==

> <PUBCHEM_CACTVS_TAUTO_COUNT>
1

> <PUBCHEM_CACTVS_TPSA>
45.6

> <PUBCHEM_COMPONENT_COUNT>
1

> <PUBCHEM_COMPOUND_CANONICALIZED>
1

> <PUBCHEM_COMPOUND_CID>
826733

> <PUBCHEM_COORDINATE_TYPE>
1
5
255

> <PUBCHEM_EXACT_MASS>
325.00949

> <PUBCHEM_HEAVY_ATOM_COUNT>
20

> <PUBCHEM_ISOTOPIC_ATOM_COUNT>
0

> <PUBCHEM_IUPAC_CAS_NAME>
2-[(2,5-dichlorophenyl)thio]-N,N-dimethylbenzamide

> <PUBCHEM_IUPAC_INCHI>
InChI=1S/C15H13Cl2NOS/c1-18(2)15(19)11-5-3-4-6-13(11)20-14-9-10(16)7-8-12(14)17/h3-9H,1-2H3

> <PUBCHEM_IUPAC_INCHIKEY>
SWRGUCHXTIJVLZ-UHFFFAOYSA-N

> <PUBCHEM_IUPAC_NAME>
2-(2,5-dichlorophenyl)sulfanyl-N,N-dimethylbenzamide

> <PUBCHEM_IUPAC_OPENEYE_NAME>
2-(2,5-dichlorophenyl)sulfanyl-N,N-dimethyl-benzamide

> <PUBCHEM_IUPAC_SYSTEMATIC_NAME>
2-[2,5-bis(chloranyl)phenyl]sulfanyl-N,N-dimethyl-benzamide

> <PUBCHEM_IUPAC_TRADITIONAL_NAME>
2-[(2,5-dichlorophenyl)thio]-N,N-dimethyl-benzamide

> <PUBCHEM_MOLECULAR_FORMULA>
C15H13Cl2NOS

> <PUBCHEM_MOLECULAR_WEIGHT>
326.24082

> <PUBCHEM_MONOISOTOPIC_WEIGHT>
325.00949

> <PUBCHEM_OPENEYE_CAN_SMILES>
CN(C)C(=O)C1=CC=CC=C1SC2=C(C=CC(=C2)Cl)Cl

> <PUBCHEM_OPENEYE_ISO_SMILES>
CN(C)C(=O)C1=CC=CC=C1SC2=C(C=CC(=C2)Cl)Cl

> <PUBCHEM_TOTAL_CHARGE>
0

> <PUBCHEM_XLOGP3_AA>
4.7

$$$$
Largest isolated from Written by BCL::WriteToMDL,1045737
JMcorina  04211410293D 1   1.00000     0.00000 
CORINA 3.49 0026  01.06.2011
 41 43  0  0  0  0  0  0  0  0999 V2000
   -0.0225    1.8097    0.0120 S   0  0  0  1  0  0  0  0  0  0  0  0
   -2.5775   -0.9838    3.5186 O   0  0  0  1  0  0  0  0  0  0  0  0
   -0.6954   -0.2380   -4.2585 O   0  0  0  1  0  0  0  0  0  0  0  0
   -0.6184   -0.2557    2.7690 O   0  0  0  1  0  0  0  0  0  0  0  0
   -2.1779   -0.7987   -1.0661 N   0  0  0  1  0  0  0  0  0  0  0  0
   -3.4111   -1.2571   -0.5813 N   0  0  0  1  0  0  0  0  0  0  0  0
   -3.3690   -1.2525    0.7055 N   0  0  0  1  0  0  0  0  0  0  0  0
   -0.6576   -0.2300   -2.8424 N   0  0  0  1  0  0  0  0  0  0  0  0
   -1.9732   -0.7081   -4.6501 N   0  0  0  1  0  0  0  0  0  0  0  0
   -3.9572   -1.4460   -3.5191 N   0  0  0  1  0  0  0  0  0  0  0  0
   -1.4117   -0.5257    0.0127 C   0  0  0  1  0  0  0  0  0  0  0  0
    0.0021   -0.0041    0.0020 C   0  0  0  1  0  0  0  0  0  0  0  0
   -2.1660   -0.8129    1.1155 C   0  0  0  1  0  0  0  0  0  0  0  0
   -1.8096   -0.6571   -2.4088 C   0  0  0  1  0  0  0  0  0  0  0  0
    1.6887    2.2294   -0.0021 C   0  0  0  1  0  0  0  0  0  0  0  0
   -1.7345   -0.6650    2.5169 C   0  0  0  1  0  0  0  0  0  0  0  0
    2.0788    3.5633    0.0013 C   0  0  0  1  0  0  0  0  0  0  0  0
    2.6516    1.2274   -0.0109 C   0  0  0  1  0  0  0  0  0  0  0  0
    4.3762    2.8886   -0.0248 C   0  0  0  1  0  0  0  0  0  0  0  0
   -2.6539   -0.9640   -3.5668 C   0  0  0  1  0  0  0  0  0  0  0  0
    3.4208    3.8884   -0.0098 C   0  0  0  1  0  0  0  0  0  0  0  0
    3.9917    1.5600   -0.0220 C   0  0  0  1  0  0  0  0  0  0  0  0
    5.8397    3.2475   -0.0374 C   0  0  0  1  0  0  0  0  0  0  0  0
   -2.0852   -0.8132    4.8739 C   0  0  0  1  0  0  0  0  0  0  0  0
   -3.1742   -1.2225    5.8675 C   0  0  0  1  0  0  0  0  0  0  0  0
    0.5123   -0.3556   -0.8948 H   0  0  0  1  0  0  0  0  0  0  0  0
    0.5293   -0.3651    0.8851 H   0  0  0  1  0  0  0  0  0  0  0  0
    1.3333    4.3446    0.0123 H   0  0  0  1  0  0  0  0  0  0  0  0
    2.3521    0.1897   -0.0088 H   0  0  0  1  0  0  0  0  0  0  0  0
    3.7247    4.9248   -0.0071 H   0  0  0  1  0  0  0  0  0  0  0  0
    4.7406    0.7818   -0.0289 H   0  0  0  1  0  0  0  0  0  0  0  0
    6.2028    3.3284    0.9872 H   0  0  0  1  0  0  0  0  0  0  0  0
    6.3994    2.4725   -0.5610 H   0  0  0  1  0  0  0  0  0  0  0  0
    5.9755    4.2012   -0.5473 H   0  0  0  1  0  0  0  0  0  0  0  0
   -1.2046   -1.4383    5.0220 H   0  0  0  1  0  0  0  0  0  0  0  0
   -1.8202    0.2317    5.0354 H   0  0  0  1  0  0  0  0  0  0  0  0
   -4.4400   -1.6210   -4.3421 H   0  0  0  1  0  0  0  0  0  0  0  0
   -4.3836   -1.6074   -2.6630 H   0  0  0  1  0  0  0  0  0  0  0  0
   -3.4392   -2.2674    5.7060 H   0  0  0  1  0  0  0  0  0  0  0  0
   -2.8047   -1.0944    6.8849 H   0  0  0  1  0  0  0  0  0  0  0  0
   -4.0548   -0.5973    5.7194 H   0  0  0  1  0  0  0  0  0  0  0  0
  1 12  1  0  0  0  0
  1 15  1  0  0  0  0
  2 16  1  0  0  0  0
  2 24  1  0  0  0  0
  3  8  4  0  0  0  0
  3  9  4  0  0  0  0
  4 16  2  0  0  0  0
  5  6  4  0  0  0  0
  5 11  4  0  0  0  0
  5 14  1  0  0  0  0
  6  7  4  0  0  0  0
  7 13  4  0  0  0  0
  8 14  4  0  0  0  0
  9 20  4  0  0  0  0
 10 20  1  0  0  0  0
 10 37  1  0  0  0  0
 10 38  1  0  0  0  0
 11 12  1  0  0  0  0
 11 13  4  0  0  0  0
 12 26  1  0  0  0  0
 12 27  1  0  0  0  0
 13 16  1  0  0  0  0
 14 20  4  0  0  0  0
 15 17  4  0  0  0  0
 15 18  4  0  0  0  0
 17 21  4  0  0  0  0
 17 28  1  0  0  0  0
 18 22  4  0  0  0  0
 18 29  1  0  0  0  0
 19 21  4  0  0  0  0
 19 22  4  0  0  0  0
 19 23  1  0  0  0  0
 21 30  1  0  0  0  0
 22 31  1  0  0  0  0
 23 32  1  0  0  0  0
 23 33  1  0  0  0  0
 23 34  1  0  0  0  0
 24 25  1  0  0  0  0
 24 35  1  0  0  0  0
 24 36  1  0  0  0  0
 25 39  1  0  0  0  0
 25 40  1  0  0  0  0
 25 41  1  0  0  0  0
M  END
> <Activity>
0.01

> <Mapped(file=2032.csv.activities,property=Cached(PUBCHEM_COMPOUND_CID))>
100

> <MatchIndices>
192 

> <PUBCHEM_ATOM_DEF_STEREO_COUNT>
0

> <PUBCHEM_ATOM_UDEF_STEREO_COUNT>
0

> <PUBCHEM_BONDANNOTATIONS>
11  13  8
14  20  8
15  17  8
15  18  8
17  21  8
18  22  8
19  21  8
19  22  8
3  8  8
3  9  8
5  11  8
5  6  8
6  7  8
7  13  8
8  14  8
9  20  8

> <PUBCHEM_BOND_DEF_STEREO_COUNT>
0

> <PUBCHEM_BOND_UDEF_STEREO_COUNT>
0

> <PUBCHEM_CACTVS_COMPLEXITY>
451

> <PUBCHEM_CACTVS_HBOND_ACCEPTOR>
8

> <PUBCHEM_CACTVS_HBOND_DONOR>
1

> <PUBCHEM_CACTVS_ROTATABLE_BOND>
7

> <PUBCHEM_CACTVS_SUBSKEYS>
AAADceBzsABAAAAAAAAAAAAAAAAAAWLAAAAwAAAAAAAAAAAB8AAAHgQcAAAADAil3gKzuZJYBAirAybybgQCBCQnGBA9mBmwWMqKZnrgORiXMYAmgILoqWcAgAAOEAAAAAAAAAAgAAAAAAAAAAAAAAAAAA==

> <PUBCHEM_CACTVS_TAUTO_COUNT>
2

> <PUBCHEM_CACTVS_TPSA>
147

> <PUBCHEM_COMPONENT_COUNT>
1

> <PUBCHEM_COMPOUND_CANONICALIZED>
1

> <PUBCHEM_COMPOUND_CID>
1045737

> <PUBCHEM_COORDINATE_TYPE>
1
5
255

> <PUBCHEM_EXACT_MASS>
360.100459

> <PUBCHEM_HEAVY_ATOM_COUNT>
25

> <PUBCHEM_ISOTOPIC_ATOM_COUNT>
0

> <PUBCHEM_IUPAC_CAS_NAME>
1-(4-amino-1,2,5-oxadiazol-3-yl)-5-[[(4-methylphenyl)thio]methyl]-4-triazolecarboxylic acid ethyl ester

> <PUBCHEM_IUPAC_INCHI>
InChI=1S/C15H16N6O3S/c1-3-23-15(22)12-11(8-25-10-6-4-9(2)5-7-10)21(20-17-12)14-13(16)18-24-19-14/h4-7H,3,8H2,1-2H3,(H2,16,18)

> <PUBCHEM_IUPAC_INCHIKEY>
YABICWGRDOCOPQ-UHFFFAOYSA-N

> <PUBCHEM_IUPAC_NAME>
ethyl 1-(4-amino-1,2,5-oxadiazol-3-yl)-5-[(4-methylphenyl)sulfanylmethyl]triazole-4-carboxylate

> <PUBCHEM_IUPAC_OPENEYE_NAME>
ethyl 1-(4-amino-1,2,5-oxadiazol-3-yl)-5-(p-tolylsulfanylmethyl)triazole-4-carboxylate

> <PUBCHEM_IUPAC_SYSTEMATIC_NAME>
ethyl 1-(4-azanyl-1,2,5-oxadiazol-3-yl)-5-[(4-methylphenyl)sulfanylmethyl]-1,2,3-triazole-4-carboxylate

> <PUBCHEM_IUPAC_TRADITIONAL_NAME>
1-(4-aminofurazan-3-yl)-5-[(p-tolylthio)methyl]triazole-4-carboxylic acid ethyl ester

> <PUBCHEM_MOLECULAR_FORMULA>
C15H16N6O3S

> <PUBCHEM_MOLECULAR_WEIGHT>
360.39094

> <PUBCHEM_MONOISOTOPIC_WEIGHT>
360.100459

> <PUBCHEM_OPENEYE_CAN_SMILES>
CCOC(=O)C1=C(N(N=N1)C2=NON=C2N)CSC3=CC=C(C=C3)C

> <PUBCHEM_OPENEYE_ISO_SMILES>
CCOC(=O)C1=C(N(N=N1)C2=NON=C2N)CSC3=CC=C(C=C3)C

> <PUBCHEM_TOTAL_CHARGE>
0

> <PUBCHEM_XLOGP3_AA>
2.1

$$$$
Largest isolated from Written by BCL::WriteToMDL,2924404
JMcorina  04211410293D 1   1.00000     0.00000 
CORINA 3.49 0026  01.06.2011
 50 51  0  0  0  0  0  0  0  0999 V2000
   -0.0674    1.3539   -0.0321 O   0  0  0  1  0  0  0  0  0  0  0  0
    2.3345    8.3225    1.3681 O   0  0  0  1  0  0  0  0  0  0  0  0
    2.0719    5.7203    0.1249 N   0  0  0  1  0  0  0  0  0  0  0  0
    0.0600   -4.2770   -0.0210 C   0  0  0  1  0  0  0  0  0  0  0  0
    0.0260   -2.7704   -0.0243 C   0  0  0  1  0  0  0  0  0  0  0  0
    0.8992   -4.7631   -1.1745 C   0  0  0  1  0  0  0  0  0  0  0  0
    0.6662   -4.7705    1.2942 C   0  0  0  1  0  0  0  0  0  0  0  0
   -1.3636   -4.8197   -0.1617 C   0  0  0  1  0  0  0  0  0  0  0  0
   -1.1842   -2.1076   -0.1139 C   0  0  0  1  0  0  0  0  0  0  0  0
    1.2045   -2.0532    0.0678 C   0  0  0  1  0  0  0  0  0  0  0  0
    1.9530   -5.6281   -0.9464 C   0  0  0  1  0  0  0  0  0  0  0  0
    0.6117   -4.3483   -2.4614 C   0  0  0  1  0  0  0  0  0  0  0  0
   -1.2181   -0.7266   -0.1167 C   0  0  0  1  0  0  0  0  0  0  0  0
    1.1759   -0.6721    0.0654 C   0  0  0  1  0  0  0  0  0  0  0  0
   -0.0366   -0.0047   -0.0296 C   0  0  0  1  0  0  0  0  0  0  0  0
    2.7228   -6.0740   -2.0044 C   0  0  0  1  0  0  0  0  0  0  0  0
    1.3814   -4.7942   -3.5195 C   0  0  0  1  0  0  0  0  0  0  0  0
    0.9532    3.5433    0.0427 C   0  0  0  1  0  0  0  0  0  0  0  0
    1.1874    2.0314    0.0604 C   0  0  0  1  0  0  0  0  0  0  0  0
    2.4385   -5.6551   -3.2908 C   0  0  0  1  0  0  0  0  0  0  0  0
    2.2967    4.2687    0.1418 C   0  0  0  1  0  0  0  0  0  0  0  0
    3.3428    6.4510    0.2186 C   0  0  0  1  0  0  0  0  0  0  0  0
    3.0685    7.9560    0.1980 C   0  0  0  1  0  0  0  0  0  0  0  0
    0.0593   -4.4190    2.1286 H   0  0  0  1  0  0  0  0  0  0  0  0
    0.6909   -5.8603    1.2967 H   0  0  0  1  0  0  0  0  0  0  0  0
    1.6804   -4.3840    1.3945 H   0  0  0  1  0  0  0  0  0  0  0  0
   -1.7954   -4.4681   -1.0987 H   0  0  0  1  0  0  0  0  0  0  0  0
   -1.3389   -5.9094   -0.1593 H   0  0  0  1  0  0  0  0  0  0  0  0
   -1.9705   -4.4681    0.6726 H   0  0  0  1  0  0  0  0  0  0  0  0
   -2.1036   -2.6701   -0.1820 H   0  0  0  1  0  0  0  0  0  0  0  0
    2.1481   -2.5733    0.1421 H   0  0  0  1  0  0  0  0  0  0  0  0
    2.1751   -5.9554    0.0586 H   0  0  0  1  0  0  0  0  0  0  0  0
   -0.2146   -3.6762   -2.6403 H   0  0  0  1  0  0  0  0  0  0  0  0
   -2.1636   -0.2094   -0.1869 H   0  0  0  1  0  0  0  0  0  0  0  0
    2.0967   -0.1124    0.1378 H   0  0  0  1  0  0  0  0  0  0  0  0
    3.5465   -6.7493   -1.8261 H   0  0  0  1  0  0  0  0  0  0  0  0
    1.1565   -4.4704   -4.5250 H   0  0  0  1  0  0  0  0  0  0  0  0
    0.4568    3.8233   -0.8864 H   0  0  0  1  0  0  0  0  0  0  0  0
    0.3257    3.8236    0.8888 H   0  0  0  1  0  0  0  0  0  0  0  0
    1.6839    1.7515    0.9895 H   0  0  0  1  0  0  0  0  0  0  0  0
    1.8150    1.7511   -0.7856 H   0  0  0  1  0  0  0  0  0  0  0  0
    3.0401   -6.0031   -4.1174 H   0  0  0  1  0  0  0  0  0  0  0  0
    2.9242    3.9883   -0.7042 H   0  0  0  1  0  0  0  0  0  0  0  0
    2.7932    3.9887    1.0709 H   0  0  0  1  0  0  0  0  0  0  0  0
    1.5556    5.9966   -0.6968 H   0  0  0  1  0  0  0  0  0  0  0  0
    3.8465    6.1861    1.1482 H   0  0  0  1  0  0  0  0  0  0  0  0
    3.9776    6.1858   -0.6269 H   0  0  0  1  0  0  0  0  0  0  0  0
    2.4871    8.2073   -0.6891 H   0  0  0  1  0  0  0  0  0  0  0  0
    4.0142    8.4975    0.1779 H   0  0  0  1  0  0  0  0  0  0  0  0
    2.1250    9.2650    1.4218 H   0  0  0  1  0  0  0  0  0  0  0  0
  1 15  1  0  0  0  0
  1 19  1  0  0  0  0
  2 23  1  0  0  0  0
  2 50  1  0  0  0  0
  3 21  1  0  0  0  0
  3 22  1  0  0  0  0
  3 45  1  0  0  0  0
  4  5  1  0  0  0  0
  4  6  1  0  0  0  0
  4  7  1  0  0  0  0
  4  8  1  0  0  0  0
  5  9  4  0  0  0  0
  5 10  4  0  0  0  0
  6 11  4  0  0  0  0
  6 12  4  0  0  0  0
  7 24  1  0  0  0  0
  7 25  1  0  0  0  0
  7 26  1  0  0  0  0
  8 27  1  0  0  0  0
  8 28  1  0  0  0  0
  8 29  1  0  0  0  0
  9 13  4  0  0  0  0
  9 30  1  0  0  0  0
 10 14  4  0  0  0  0
 10 31  1  0  0  0  0
 11 16  4  0  0  0  0
 11 32  1  0  0  0  0
 12 17  4  0  0  0  0
 12 33  1  0  0  0  0
 13 15  4  0  0  0  0
 13 34  1  0  0  0  0
 14 15  4  0  0  0  0
 14 35  1  0  0  0  0
 16 20  4  0  0  0  0
 16 36  1  0  0  0  0
 17 20  4  0  0  0  0
 17 37  1  0  0  0  0
 18 19  1  0  0  0  0
 18 21  1  0  0  0  0
 18 38  1  0  0  0  0
 18 39  1  0  0  0  0
 19 40  1  0  0  0  0
 19 41  1  0  0  0  0
 20 42  1  0  0  0  0
 21 43  1  0  0  0  0
 21 44  1  0  0  0  0
 22 23  1  0  0  0  0
 22 46  1  0  0  0  0
 22 47  1  0  0  0  0
 23 48  1  0  0  0  0
 23 49  1  0  0  0  0
M  END
> <Activity>
0.01

> <Mapped(file=2032.csv.activities,property=Cached(PUBCHEM_COMPOUND_CID))>
100

> <MatchIndices>
35 

> <PUBCHEM_ATOM_DEF_STEREO_COUNT>
0

> <PUBCHEM_ATOM_UDEF_STEREO_COUNT>
0

> <PUBCHEM_BONDANNOTATIONS>
10  15  8
10  16  8
13  17  8
14  18  8
15  20  8
16  21  8
17  19  8
18  19  8
20  24  8
21  24  8
9  13  8
9  14  8

> <PUBCHEM_BOND_DEF_STEREO_COUNT>
0

> <PUBCHEM_BOND_UDEF_STEREO_COUNT>
0

> <PUBCHEM_CACTVS_COMPLEXITY>
376

> <PUBCHEM_CACTVS_HBOND_ACCEPTOR>
7

> <PUBCHEM_CACTVS_HBOND_DONOR>
4

> <PUBCHEM_CACTVS_ROTATABLE_BOND>
10

> <PUBCHEM_CACTVS_SUBSKEYS>
AAADceB6OAAAAAAAAAAAAAAAAAAAAAAAAAAwYAAAAAAAAAABQAAAHgAQCAAADgThmAYyDoLABgCIAiDSCAICCAAgIAAIiIBOCIgPNiKEMRqGOCCm0BGZqAeAwPAPoAAAAAAAAABAAAAAAAAAAAAAAAAAAA==

> <PUBCHEM_CACTVS_TAUTO_COUNT>
1

> <PUBCHEM_CACTVS_TPSA>
116

> <PUBCHEM_COMPONENT_COUNT>
2

> <PUBCHEM_COMPOUND_CANONICALIZED>
1

> <PUBCHEM_COMPOUND_CID>
2924404

> <PUBCHEM_COORDINATE_TYPE>
1
5
255

> <PUBCHEM_EXACT_MASS>
403.199488

> <PUBCHEM_HEAVY_ATOM_COUNT>
29

> <PUBCHEM_ISOTOPIC_ATOM_COUNT>
0

> <PUBCHEM_IUPAC_CAS_NAME>
oxalic acid; 2-[3-[4-(2-phenylpropan-2-yl)phenoxy]propylamino]ethanol

> <PUBCHEM_IUPAC_INCHI>
InChI=1S/C20H27NO2.C2H2O4/c1-20(2,17-7-4-3-5-8-17)18-9-11-19(12-10-18)23-16-6-13-21-14-15-22;3-1(4)2(5)6/h3-5,7-12,21-22H,6,13-16H2,1-2H3;(H,3,4)(H,5,6)

> <PUBCHEM_IUPAC_INCHIKEY>
HPXUDIALYYMYIT-UHFFFAOYSA-N

> <PUBCHEM_IUPAC_NAME>
oxalic acid; 2-[3-[4-(2-phenylpropan-2-yl)phenoxy]propylamino]ethanol

> <PUBCHEM_IUPAC_OPENEYE_NAME>
2-[3-[4-(1-methyl-1-phenyl-ethyl)phenoxy]propylamino]ethanol; oxalic acid

> <PUBCHEM_IUPAC_SYSTEMATIC_NAME>
ethanedioic acid; 2-[3-[4-(2-phenylpropan-2-yl)phenoxy]propylamino]ethanol

> <PUBCHEM_IUPAC_TRADITIONAL_NAME>
2-[3-(4-cumylphenoxy)propylamino]ethanol; oxalic acid

> <PUBCHEM_MOLECULAR_FORMULA>
C22H29NO6

> <PUBCHEM_MOLECULAR_WEIGHT>
403.46876

> <PUBCHEM_MONOISOTOPIC_WEIGHT>
403.199488

> <PUBCHEM_OPENEYE_CAN_SMILES>
CC(C)(C1=CC=CC=C1)C2=CC=C(C=C2)OCCCNCCO.C(=O)(C(=O)O)O

> <PUBCHEM_OPENEYE_ISO_SMILES>
CC(C)(C1=CC=CC=C1)C2=CC=C(C=C2)OCCCNCCO.C(=O)(C(=O)O)O

> <PUBCHEM_TOTAL_CHARGE>
0

$$$$
Largest isolated from Written by BCL::WriteToMDL,892591
JMcorina  04211410293D 1   1.00000     0.00000 
CORINA 3.49 0026  01.06.2011
 42 43  0  0  0  0  0  0  0  0999 V2000
   -1.4750    6.6936   -0.1795 Br  0  0  0  1  0  0  0  0  0  0  0  0
    0.0627    1.4911   -0.6943 O   0  0  0  1  0  0  0  0  0  0  0  0
    2.2757    1.4897   -0.5233 O   0  0  0  1  0  0  0  0  0  0  0  0
   -1.0207   -2.2782   -2.2003 N   0  0  0  1  0  0  0  0  0  0  0  0
    0.1140    0.0619   -0.9453 C   0  0  0  1  0  0  0  0  0  0  0  0
   -1.1681   -0.5952   -0.4266 C   0  0  0  1  0  0  0  0  0  0  0  0
    0.2337   -0.1892   -2.4510 C   0  0  0  1  0  0  0  0  0  0  0  0
   -1.1352   -2.0910   -0.7484 C   0  0  0  1  0  0  0  0  0  0  0  0
    0.2260   -1.6968   -2.7141 C   0  0  0  1  0  0  0  0  0  0  0  0
   -1.1253   -3.6993   -2.5577 C   0  0  0  1  0  0  0  0  0  0  0  0
    1.2371    2.1189   -0.4914 C   0  0  0  1  0  0  0  0  0  0  0  0
    1.2620    3.5727   -0.2301 C   0  0  0  1  0  0  0  0  0  0  0  0
    2.4622    4.2054    0.1006 C   0  0  0  1  0  0  0  0  0  0  0  0
    2.4790    5.5631    0.3430 C   0  0  0  1  0  0  0  0  0  0  0  0
    1.3100    6.2988    0.2593 C   0  0  0  1  0  0  0  0  0  0  0  0
    0.0868    4.3210   -0.3182 C   0  0  0  1  0  0  0  0  0  0  0  0
    0.1165    5.6784   -0.0680 C   0  0  0  1  0  0  0  0  0  0  0  0
    3.7365    3.4062    0.1928 C   0  0  0  1  0  0  0  0  0  0  0  0
    3.7735    6.2469    0.7003 C   0  0  0  1  0  0  0  0  0  0  0  0
    1.3362    7.7817    0.5260 C   0  0  0  1  0  0  0  0  0  0  0  0
    0.9757   -0.3671   -0.4339 H   0  0  0  1  0  0  0  0  0  0  0  0
   -1.2373   -0.4565    0.6523 H   0  0  0  1  0  0  0  0  0  0  0  0
   -2.0321   -0.1381   -0.9090 H   0  0  0  1  0  0  0  0  0  0  0  0
   -0.6082    0.2742   -2.9653 H   0  0  0  1  0  0  0  0  0  0  0  0
    1.1660    0.2396   -2.8185 H   0  0  0  1  0  0  0  0  0  0  0  0
   -2.0531   -2.5592   -0.3930 H   0  0  0  1  0  0  0  0  0  0  0  0
   -0.2787   -2.5499   -0.2544 H   0  0  0  1  0  0  0  0  0  0  0  0
    1.0761   -2.1576   -2.2109 H   0  0  0  1  0  0  0  0  0  0  0  0
    0.2967   -1.8787   -3.7865 H   0  0  0  1  0  0  0  0  0  0  0  0
   -2.0904   -4.0861   -2.2304 H   0  0  0  1  0  0  0  0  0  0  0  0
   -1.0373   -3.8095   -3.6386 H   0  0  0  1  0  0  0  0  0  0  0  0
   -0.3259   -4.2565   -2.0694 H   0  0  0  1  0  0  0  0  0  0  0  0
   -0.8440    3.8386   -0.5775 H   0  0  0  1  0  0  0  0  0  0  0  0
    4.1660    3.2909   -0.8024 H   0  0  0  1  0  0  0  0  0  0  0  0
    4.4458    3.9263    0.8366 H   0  0  0  1  0  0  0  0  0  0  0  0
    3.5195    2.4232    0.6109 H   0  0  0  1  0  0  0  0  0  0  0  0
    4.2678    6.5873   -0.2095 H   0  0  0  1  0  0  0  0  0  0  0  0
    3.5670    7.1024    1.3435 H   0  0  0  1  0  0  0  0  0  0  0  0
    4.4220    5.5456    1.2255 H   0  0  0  1  0  0  0  0  0  0  0  0
    1.5246    8.3152   -0.4057 H   0  0  0  1  0  0  0  0  0  0  0  0
    0.3758    8.0942    0.9358 H   0  0  0  1  0  0  0  0  0  0  0  0
    2.1273    8.0084    1.2408 H   0  0  0  1  0  0  0  0  0  0  0  0
  1 17  1  0  0  0  0
  2  5  1  0  0  0  0
  2 11  1  0  0  0  0
  3 11  2  0  0  0  0
  4  8  1  0  0  0  0
  4  9  1  0  0  0  0
  4 10  1  0  0  0  0
  5  6  1  0  0  0  0
  5  7  1  0  0  0  0
  5 21  1  0  0  0  0
  6  8  1  0  0  0  0
  6 22  1  0  0  0  0
  6 23  1  0  0  0  0
  7  9  1  0  0  0  0
  7 24  1  0  0  0  0
  7 25  1  0  0  0  0
  8 26  1  0  0  0  0
  8 27  1  0  0  0  0
  9 28  1  0  0  0  0
  9 29  1  0  0  0  0
 10 30  1  0  0  0  0
 10 31  1  0  0  0  0
 10 32  1  0  0  0  0
 11 12  1  0  0  0  0
 12 13  4  0  0  0  0
 12 16  4  0  0  0  0
 13 14  4  0  0  0  0
 13 18  1  0  0  0  0
 14 15  4  0  0  0  0
 14 19  1  0  0  0  0
 15 17  4  0  0  0  0
 15 20  1  0  0  0  0
 16 17  4  0  0  0  0
 16 33  1  0  0  0  0
 18 34  1  0  0  0  0
 18 35  1  0  0  0  0
 18 36  1  0  0  0  0
 19 37  1  0  0  0  0
 19 38  1  0  0  0  0
 19 39  1  0  0  0  0
 20 40  1  0  0  0  0
 20 41  1  0  0  0  0
 20 42  1  0  0  0  0
M  END
> <Activity>
0.01

> <Mapped(file=2032.csv.activities,property=Cached(PUBCHEM_COMPOUND_CID))>
100

> <MatchIndices>
66 

> <PUBCHEM_ATOM_DEF_STEREO_COUNT>
0

> <PUBCHEM_ATOM_UDEF_STEREO_COUNT>
0

> <PUBCHEM_BONDANNOTATIONS>
12  13  8
12  16  8
13  14  8
14  15  8
15  17  8
16  17  8

> <PUBCHEM_BOND_DEF_STEREO_COUNT>
0

> <PUBCHEM_BOND_UDEF_STEREO_COUNT>
0

> <PUBCHEM_CACTVS_COMPLEXITY>
341

> <PUBCHEM_CACTVS_HBOND_ACCEPTOR>
3

> <PUBCHEM_CACTVS_HBOND_DONOR>
0

> <PUBCHEM_CACTVS_ROTATABLE_BOND>
3

> <PUBCHEM_CACTVS_SUBSKEYS>
AAADceB6MAAAEAAAAAAAAAAAAAAAAAAAAAA8QAAAAAAAAAABAAAAHgBAAAABrBThmAYyCIMABACIAiDSCAACAAAkAAQAiAEICOgIJjKAtBiGMQAmwAGIq5eYyPCOwgACEAAQgACEAAQgACEAAAAAAAAAAA==

> <PUBCHEM_CACTVS_TAUTO_COUNT>
3

> <PUBCHEM_CACTVS_TPSA>
29.5

> <PUBCHEM_COMPONENT_COUNT>
1

> <PUBCHEM_COMPOUND_CANONICALIZED>
1

> <PUBCHEM_COMPOUND_CID>
892591

> <PUBCHEM_COORDINATE_TYPE>
1
5
255

> <PUBCHEM_EXACT_MASS>
339.083391

> <PUBCHEM_HEAVY_ATOM_COUNT>
20

> <PUBCHEM_ISOTOPIC_ATOM_COUNT>
0

> <PUBCHEM_IUPAC_CAS_NAME>
5-bromo-2,3,4-trimethylbenzoic acid (1-methyl-4-piperidinyl) ester

> <PUBCHEM_IUPAC_INCHI>
InChI=1S/C16H22BrNO2/c1-10-11(2)14(9-15(17)12(10)3)16(19)20-13-5-7-18(4)8-6-13/h9,13H,5-8H2,1-4H3

> <PUBCHEM_IUPAC_INCHIKEY>
BCEAOWDUQRYWIV-UHFFFAOYSA-N

> <PUBCHEM_IUPAC_NAME>
(1-methylpiperidin-4-yl) 5-bromo-2,3,4-trimethylbenzoate

> <PUBCHEM_IUPAC_OPENEYE_NAME>
(1-methyl-4-piperidyl) 5-bromo-2,3,4-trimethyl-benzoate

> <PUBCHEM_IUPAC_SYSTEMATIC_NAME>
(1-methylpiperidin-4-yl) 5-bromanyl-2,3,4-trimethyl-benzoate

> <PUBCHEM_IUPAC_TRADITIONAL_NAME>
5-bromo-2,3,4-trimethyl-benzoic acid (1-methyl-4-piperidyl) ester

> <PUBCHEM_MOLECULAR_FORMULA>
C16H22BrNO2

> <PUBCHEM_MOLECULAR_WEIGHT>
340.25538

> <PUBCHEM_MONOISOTOPIC_WEIGHT>
339.083391

> <PUBCHEM_OPENEYE_CAN_SMILES>
CC1=C(C(=CC(=C1C)Br)C(=O)OC2CCN(CC2)C)C

> <PUBCHEM_OPENEYE_ISO_SMILES>
CC1=C(C(=CC(=C1C)Br)C(=O)OC2CCN(CC2)C)C

> <PUBCHEM_TOTAL_CHARGE>
0

> <PUBCHEM_XLOGP3_AA>
4.2

$$$$
Largest isolated from Written by BCL::WriteToMDL,17452193
JMcorina  04211410293D 1   1.00000     0.00000 
CORINA 3.49 0026  01.06.2011
 49 51  0  0  0  0  0  0  0  0999 V2000
   -0.1644    1.5302   -0.1557 O   0  0  0  1  0  0  0  0  0  0  0  0
   -0.9247   -1.9459    0.2015 O   0  0  0  1  0  0  0  0  0  0  0  0
   -5.6591   -6.0785    1.6749 O   0  0  0  1  0  0  0  0  0  0  0  0
   -8.2557   -5.1832    1.4673 O   0  0  0  1  0  0  0  0  0  0  0  0
   -2.4206   -0.3271   -0.0773 N   0  0  0  1  0  0  0  0  0  0  0  0
   -3.5282   -1.2858   -0.0562 C   0  0  0  1  0  0  0  0  0  0  0  0
   -3.9882   -1.5018    1.3869 C   0  0  0  1  0  0  0  0  0  0  0  0
   -0.0350    0.1891   -0.0787 C   0  0  0  1  0  0  0  0  0  0  0  0
    1.2803   -0.1475   -0.1103 C   0  0  0  1  0  0  0  0  0  0  0  0
   -5.1275   -2.4880    1.4086 C   0  0  0  1  0  0  0  0  0  0  0  0
    2.0181    1.1107   -0.2167 C   0  0  0  1  0  0  0  0  0  0  0  0
   -1.1496   -0.7635    0.0244 C   0  0  0  1  0  0  0  0  0  0  0  0
    1.0417    2.1245   -0.2400 C   0  0  0  1  0  0  0  0  0  0  0  0
   -2.6947    1.1060   -0.2090 C   0  0  0  1  0  0  0  0  0  0  0  0
   -4.8671   -3.8400    1.5330 C   0  0  0  1  0  0  0  0  0  0  0  0
    1.8619   -1.5364   -0.0475 C   0  0  0  1  0  0  0  0  0  0  0  0
   -6.4311   -2.0382    1.3099 C   0  0  0  1  0  0  0  0  0  0  0  0
    3.3729    1.4418   -0.2903 C   0  0  0  1  0  0  0  0  0  0  0  0
    1.4449    3.4509   -0.3377 C   0  0  0  1  0  0  0  0  0  0  0  0
   -5.9136   -4.7481    1.5531 C   0  0  0  1  0  0  0  0  0  0  0  0
   -7.4797   -2.9389    1.3293 C   0  0  0  1  0  0  0  0  0  0  0  0
   -7.2253   -4.2958    1.4480 C   0  0  0  1  0  0  0  0  0  0  0  0
    3.7455    2.7531   -0.3851 C   0  0  0  1  0  0  0  0  0  0  0  0
    2.7870    3.7566   -0.4101 C   0  0  0  1  0  0  0  0  0  0  0  0
   -4.2887   -6.4701    1.7776 C   0  0  0  1  0  0  0  0  0  0  0  0
   -9.5756   -4.6472    1.3549 C   0  0  0  1  0  0  0  0  0  0  0  0
   -4.3571   -0.8964   -0.6474 H   0  0  0  1  0  0  0  0  0  0  0  0
   -3.1956   -2.2345   -0.4774 H   0  0  0  1  0  0  0  0  0  0  0  0
   -3.1594   -1.8912    1.9781 H   0  0  0  1  0  0  0  0  0  0  0  0
   -4.3208   -0.5531    1.8081 H   0  0  0  1  0  0  0  0  0  0  0  0
   -2.7147    1.5645    0.7797 H   0  0  0  1  0  0  0  0  0  0  0  0
   -1.9135    1.5717   -0.8097 H   0  0  0  1  0  0  0  0  0  0  0  0
   -3.6600    1.2482   -0.6950 H   0  0  0  1  0  0  0  0  0  0  0  0
   -3.8481   -4.1884    1.6140 H   0  0  0  1  0  0  0  0  0  0  0  0
   -6.6307   -0.9808    1.2177 H   0  0  0  1  0  0  0  0  0  0  0  0
    1.9616   -1.9345   -1.0573 H   0  0  0  1  0  0  0  0  0  0  0  0
    2.8426   -1.4985    0.4267 H   0  0  0  1  0  0  0  0  0  0  0  0
    1.2020   -2.1807    0.5335 H   0  0  0  1  0  0  0  0  0  0  0  0
    4.1228    0.6648   -0.2721 H   0  0  0  1  0  0  0  0  0  0  0  0
    0.7082    4.2405   -0.3572 H   0  0  0  1  0  0  0  0  0  0  0  0
   -8.4971   -2.5849    1.2524 H   0  0  0  1  0  0  0  0  0  0  0  0
    4.7929    3.0104   -0.4418 H   0  0  0  1  0  0  0  0  0  0  0  0
    3.0962    4.7886   -0.4859 H   0  0  0  1  0  0  0  0  0  0  0  0
   -3.7513   -6.1496    0.8851 H   0  0  0  1  0  0  0  0  0  0  0  0
   -3.8428   -6.0049    2.6568 H   0  0  0  1  0  0  0  0  0  0  0  0
   -4.2266   -7.5545    1.8694 H   0  0  0  1  0  0  0  0  0  0  0  0
   -9.7621   -3.9638    2.1833 H   0  0  0  1  0  0  0  0  0  0  0  0
   -9.6702   -4.1091    0.4117 H   0  0  0  1  0  0  0  0  0  0  0  0
  -10.3015   -5.4599    1.3838 H   0  0  0  1  0  0  0  0  0  0  0  0
  1  8  4  0  0  0  0
  1 13  4  0  0  0  0
  2 12  2  0  0  0  0
  3 20  1  0  0  0  0
  3 25  1  0  0  0  0
  4 22  1  0  0  0  0
  4 26  1  0  0  0  0
  5  6  1  0  0  0  0
  5 12  1  0  0  0  0
  5 14  1  0  0  0  0
  6  7  1  0  0  0  0
  6 27  1  0  0  0  0
  6 28  1  0  0  0  0
  7 10  1  0  0  0  0
  7 29  1  0  0  0  0
  7 30  1  0  0  0  0
  8  9  4  0  0  0  0
  8 12  1  0  0  0  0
  9 11  4  0  0  0  0
  9 16  1  0  0  0  0
 10 15  4  0  0  0  0
 10 17  4  0  0  0  0
 11 13  4  0  0  0  0
 11 18  4  0  0  0  0
 13 19  4  0  0  0  0
 14 31  1  0  0  0  0
 14 32  1  0  0  0  0
 14 33  1  0  0  0  0
 15 20  4  0  0  0  0
 15 34  1  0  0  0  0
 16 36  1  0  0  0  0
 16 37  1  0  0  0  0
 16 38  1  0  0  0  0
 17 21  4  0  0  0  0
 17 35  1  0  0  0  0
 18 23  4  0  0  0  0
 18 39  1  0  0  0  0
 19 24  4  0  0  0  0
 19 40  1  0  0  0  0
 20 22  4  0  0  0  0
 21 22  4  0  0  0  0
 21 41  1  0  0  0  0
 23 24  4  0  0  0  0
 23 42  1  0  0  0  0
 24 43  1  0  0  0  0
 25 44  1  0  0  0  0
 25 45  1  0  0  0  0
 25 46  1  0  0  0  0
 26 47  1  0  0  0  0
 26 48  1  0  0  0  0
 26 49  1  0  0  0  0
M  END
> <Activity>
0.01

> <Mapped(file=2032.csv.activities,property=Cached(PUBCHEM_COMPOUND_CID))>
100

> <MatchIndices>
30 

> <PUBCHEM_ATOM_DEF_STEREO_COUNT>
0

> <PUBCHEM_ATOM_UDEF_STEREO_COUNT>
0

> <PUBCHEM_BONDANNOTATIONS>
1  13  8
1  8  8
10  15  8
10  17  8
11  13  8
11  18  8
13  19  8
15  20  8
17  21  8
18  23  8
19  24  8
20  22  8
21  22  8
23  24  8
8  9  8
9  11  8

> <PUBCHEM_BOND_DEF_STEREO_COUNT>
0

> <PUBCHEM_BOND_UDEF_STEREO_COUNT>
0

> <PUBCHEM_CACTVS_COMPLEXITY>
471

> <PUBCHEM_CACTVS_HBOND_ACCEPTOR>
4

> <PUBCHEM_CACTVS_HBOND_DONOR>
0

> <PUBCHEM_CACTVS_ROTATABLE_BOND>
6

> <PUBCHEM_CACTVS_SUBSKEYS>
AAADceB6OAAAAAAAAAAAAAAAAAAAASAAAAAwYAAAAAAAAEgB9AAAHgAAAAAADATBmAYyBsMABECIAqFSEAKCCAAkIAAIiAHOjMgPJjKEtT+HOSrkxhGaqYeY3/LuoAABAAAIQABAAAIAABCAAAAAAAAAAA==

> <PUBCHEM_CACTVS_TAUTO_COUNT>
1

> <PUBCHEM_CACTVS_TPSA>
51.9

> <PUBCHEM_COMPONENT_COUNT>
1

> <PUBCHEM_COMPOUND_CANONICALIZED>
1

> <PUBCHEM_COMPOUND_CID>
17452193

> <PUBCHEM_COORDINATE_TYPE>
1
5
255

> <PUBCHEM_EXACT_MASS>
353.162708

> <PUBCHEM_HEAVY_ATOM_COUNT>
26

> <PUBCHEM_ISOTOPIC_ATOM_COUNT>
0

> <PUBCHEM_IUPAC_CAS_NAME>
N-[2-(3,4-dimethoxyphenyl)ethyl]-N,3-dimethyl-2-benzofurancarboxamide

> <PUBCHEM_IUPAC_INCHI>
InChI=1S/C21H23NO4/c1-14-16-7-5-6-8-17(16)26-20(14)21(23)22(2)12-11-15-9-10-18(24-3)19(13-15)25-4/h5-10,13H,11-12H2,1-4H3

> <PUBCHEM_IUPAC_INCHIKEY>
GPHXLFUEFGYOFQ-UHFFFAOYSA-N

> <PUBCHEM_IUPAC_NAME>
N-[2-(3,4-dimethoxyphenyl)ethyl]-N,3-dimethyl-1-benzofuran-2-carboxamide

> <PUBCHEM_IUPAC_OPENEYE_NAME>
N-[2-(3,4-dimethoxyphenyl)ethyl]-N,3-dimethyl-benzofuran-2-carboxamide

> <PUBCHEM_IUPAC_SYSTEMATIC_NAME>
N-[2-(3,4-dimethoxyphenyl)ethyl]-N,3-dimethyl-1-benzofuran-2-carboxamide

> <PUBCHEM_IUPAC_TRADITIONAL_NAME>
N-homoveratryl-N,3-dimethyl-coumarilamide

> <PUBCHEM_MOLECULAR_FORMULA>
C21H23NO4

> <PUBCHEM_MOLECULAR_WEIGHT>
353.41162

> <PUBCHEM_MONOISOTOPIC_WEIGHT>
353.162708

> <PUBCHEM_OPENEYE_CAN_SMILES>
CC1=C(OC2=CC=CC=C12)C(=O)N(C)CCC3=CC(=C(C=C3)OC)OC

> <PUBCHEM_OPENEYE_ISO_SMILES>
CC1=C(OC2=CC=CC=C12)C(=O)N(C)CCC3=CC(=C(C=C3)OC)OC

> <PUBCHEM_TOTAL_CHARGE>
0

> <PUBCHEM_XLOGP3_AA>
4.4

$$$$
