
 OpenBabel05152416213D

 58 60  0  0  0  0  0  0  0  0999 V2000
    0.9212    0.0432   -0.2440 C   0  0  0  0  0  0  0  0  0  0  0  0
    0.5228   -1.3940    0.0336 C   0  0  0  0  0  0  0  0  0  0  0  0
    0.9770   -1.9944    1.3843 C   0  0  0  0  0  0  0  0  0  0  0  0
    0.0477   -2.4407    2.3304 C   0  0  0  0  0  0  0  0  0  0  0  0
   -1.4211   -2.3857    2.0655 C   0  0  0  0  0  0  0  0  0  0  0  0
   -1.9793   -2.8722    0.8762 C   0  0  0  0  0  0  0  0  0  0  0  0
   -3.3265   -2.6681    0.5936 C   0  0  0  0  0  0  0  0  0  0  0  0
   -4.1439   -2.0087    1.5192 C   0  0  0  0  0  0  0  0  0  0  0  0
   -3.6136   -1.5769    2.7363 C   0  0  0  0  0  0  0  0  0  0  0  0
   -2.2585   -1.7677    3.0151 C   0  0  0  0  0  0  0  0  0  0  0  0
   -5.4434   -1.7818    1.2398 O   0  0  0  0  0  0  0  0  0  0  0  0
    0.3841   -2.8458    3.7298 C   0  0  0  0  0  0  0  0  0  0  0  0
    1.1915   -2.0332    4.5423 C   0  0  0  0  0  0  0  0  0  0  0  0
    1.4946   -2.4062    5.8488 C   0  0  0  0  0  0  0  0  0  0  0  0
    1.0572   -3.6455    6.3718 C   0  0  0  0  0  0  0  0  0  0  0  0
    0.1836   -4.4300    5.5815 C   0  0  0  0  0  0  0  0  0  0  0  0
   -0.1564   -4.0277    4.2872 C   0  0  0  0  0  0  0  0  0  0  0  0
    1.5935   -4.1850    7.4972 O   0  0  0  0  0  0  0  0  0  0  0  0
    2.8045   -3.8072    8.1165 C   0  0  0  0  0  0  0  0  0  0  0  0
    4.1488   -4.0423    7.3222 C   0  0  0  0  0  0  0  0  0  0  0  0
    4.1387   -3.4447    5.9847 N   0  0  0  0  0  0  0  0  0  0  0  0
    5.4635   -3.0939    5.4406 C   0  0  0  0  0  0  0  0  0  0  0  0
    3.5063   -4.3614    5.0330 C   0  0  0  0  0  0  0  0  0  0  0  0
    2.4641   -2.1004    1.6135 C   0  0  0  0  0  0  0  0  0  0  0  0
    3.0374   -3.3198    1.9994 C   0  0  0  0  0  0  0  0  0  0  0  0
    4.4196   -3.4147    2.2507 C   0  0  0  0  0  0  0  0  0  0  0  0
    5.2426   -2.3022    2.0983 C   0  0  0  0  0  0  0  0  0  0  0  0
    4.6971   -1.0995    1.6816 C   0  0  0  0  0  0  0  0  0  0  0  0
    3.3300   -0.9976    1.4470 C   0  0  0  0  0  0  0  0  0  0  0  0
    0.6671    0.6706    0.6402 H   0  0  0  0  0  0  0  0  0  0  0  0
    0.3615    0.4174   -1.1241 H   0  0  0  0  0  0  0  0  0  0  0  0
    1.9757    0.1182   -0.5509 H   0  0  0  0  0  0  0  0  0  0  0  0
   -0.5588   -1.2974   -0.0459 H   0  0  0  0  0  0  0  0  0  0  0  0
    0.8621   -2.0459   -0.8006 H   0  0  0  0  0  0  0  0  0  0  0  0
   -1.3565   -3.3712    0.1430 H   0  0  0  0  0  0  0  0  0  0  0  0
   -3.7186   -3.0050   -0.3546 H   0  0  0  0  0  0  0  0  0  0  0  0
   -4.2387   -1.0670    3.4582 H   0  0  0  0  0  0  0  0  0  0  0  0
   -1.8585   -1.3856    3.9473 H   0  0  0  0  0  0  0  0  0  0  0  0
   -5.8345   -2.0573    0.4001 H   0  0  0  0  0  0  0  0  0  0  0  0
    1.6077   -1.1178    4.1457 H   0  0  0  0  0  0  0  0  0  0  0  0
    2.1699   -1.7812    6.4172 H   0  0  0  0  0  0  0  0  0  0  0  0
   -0.1532   -5.3998    5.9404 H   0  0  0  0  0  0  0  0  0  0  0  0
   -0.7844   -4.6733    3.6791 H   0  0  0  0  0  0  0  0  0  0  0  0
    2.7228   -2.7446    8.4080 H   0  0  0  0  0  0  0  0  0  0  0  0
    2.9139   -4.4032    9.0451 H   0  0  0  0  0  0  0  0  0  0  0  0
    4.9453   -3.5566    7.9317 H   0  0  0  0  0  0  0  0  0  0  0  0
    4.4258   -5.1161    7.2384 H   0  0  0  0  0  0  0  0  0  0  0  0
    5.9925   -3.9871    5.0313 H   0  0  0  0  0  0  0  0  0  0  0  0
    5.3160   -2.3620    4.6249 H   0  0  0  0  0  0  0  0  0  0  0  0
    6.1154   -2.5817    6.1719 H   0  0  0  0  0  0  0  0  0  0  0  0
    4.1377   -5.1996    4.7060 H   0  0  0  0  0  0  0  0  0  0  0  0
    2.6815   -4.9348    5.4229 H   0  0  0  0  0  0  0  0  0  0  0  0
    3.0780   -3.7281    4.2794 H   0  0  0  0  0  0  0  0  0  0  0  0
    2.4159   -4.1970    2.1521 H   0  0  0  0  0  0  0  0  0  0  0  0
    4.8493   -4.3405    2.6109 H   0  0  0  0  0  0  0  0  0  0  0  0
    6.2978   -2.3614    2.3325 H   0  0  0  0  0  0  0  0  0  0  0  0
    5.3256   -0.2274    1.5643 H   0  0  0  0  0  0  0  0  0  0  0  0
    2.9861   -0.0235    1.1925 H   0  0  0  0  0  0  0  0  0  0  0  0
  1  2  1  0  0  0  0
  1 30  1  0  0  0  0
  1 31  1  0  0  0  0
  1 32  1  0  0  0  0
  2  3  1  0  0  0  0
  2 33  1  0  0  0  0
  2 34  1  0  0  0  0
  3  4  2  0  0  0  0
  3 24  1  0  0  0  0
  4  5  1  0  0  0  0
  4 12  1  0  0  0  0
  5  6  2  0  0  0  0
  5 10  1  0  0  0  0
  6  7  1  0  0  0  0
  6 35  1  0  0  0  0
  7  8  2  0  0  0  0
  7 36  1  0  0  0  0
  8  9  1  0  0  0  0
  8 11  1  0  0  0  0
  9 10  2  0  0  0  0
  9 37  1  0  0  0  0
 10 38  1  0  0  0  0
 11 39  1  0  0  0  0
 12 13  2  0  0  0  0
 12 17  1  0  0  0  0
 13 14  1  0  0  0  0
 13 40  1  0  0  0  0
 14 15  2  0  0  0  0
 14 41  1  0  0  0  0
 15 16  1  0  0  0  0
 15 18  1  0  0  0  0
 16 17  2  0  0  0  0
 16 42  1  0  0  0  0
 17 43  1  0  0  0  0
 18 19  1  0  0  0  0
 19 20  1  0  0  0  0
 19 44  1  0  0  0  0
 19 45  1  0  0  0  0
 20 21  1  0  0  0  0
 20 46  1  0  0  0  0
 20 47  1  0  0  0  0
 21 22  1  0  0  0  0
 21 23  1  0  0  0  0
 22 48  1  0  0  0  0
 22 49  1  0  0  0  0
 22 50  1  0  0  0  0
 23 51  1  0  0  0  0
 23 52  1  0  0  0  0
 23 53  1  0  0  0  0
 24 25  2  0  0  0  0
 24 29  1  0  0  0  0
 25 26  1  0  0  0  0
 25 54  1  0  0  0  0
 26 27  2  0  0  0  0
 26 55  1  0  0  0  0
 27 28  1  0  0  0  0
 27 56  1  0  0  0  0
 28 29  2  0  0  0  0
 28 57  1  0  0  0  0
 29 58  1  0  0  0  0
M  END
$$$$

 OpenBabel05152416213D

 66 64  0  0  0  0  0  0  0  0999 V2000
    0.7248    0.1037    0.2761 C   0  0  0  0  0  0  0  0  0  0  0  0
    0.3891   -0.5930   -1.0570 C   0  0  0  0  0  0  0  0  0  0  0  0
    0.9804   -2.0191   -1.0949 C   0  0  0  0  0  0  0  0  0  0  0  0
    0.4550   -2.8481    0.0851 C   0  0  0  0  0  0  0  0  0  0  0  0
   -1.0882   -2.8771    0.0492 C   0  0  0  0  0  0  0  0  0  0  0  0
   -1.5590   -3.5441   -1.2621 C   0  0  0  0  0  0  0  0  0  0  0  0
   -1.0182   -4.9879   -1.3031 C   0  0  0  0  0  0  0  0  0  0  0  0
   -1.5363   -5.7421   -0.0557 C   0  0  0  0  0  0  0  0  0  0  0  0
   -3.0813   -5.7241   -0.0807 C   0  0  0  0  0  0  0  0  0  0  0  0
   -3.5429   -6.3691   -1.4087 C   0  0  0  0  0  0  0  0  0  0  0  0
   -2.9222   -7.7910   -1.5072 C   0  0  0  0  0  0  0  0  0  0  0  0
   -3.3800   -8.6046   -0.2998 C   0  0  0  0  0  0  0  0  0  0  0  0
   -4.8886   -8.6113   -0.3082 C   0  0  0  0  0  0  0  0  0  0  0  0
   -5.4137   -9.2777   -1.5964 C   0  0  0  0  0  0  0  0  0  0  0  0
   -5.1133  -10.7790   -1.5607 C   0  0  0  0  0  0  0  0  0  0  0  0
   -5.7146  -11.5155   -0.3146 C   0  0  0  0  0  0  0  0  0  0  0  0
   -7.2038  -11.5578   -0.2008 N   0  3  0  0  0  0  0  0  0  0  0  0
   -7.7379  -12.1859   -1.4408 C   0  0  0  0  0  0  0  0  0  0  0  0
   -7.5843  -12.4021    0.9467 C   0  0  0  0  0  0  0  0  0  0  0  0
   -7.9120  -10.2352    0.0159 C   0  0  0  0  0  0  0  0  0  0  0  0
   -7.5192   -9.4734    1.3061 C   0  0  0  0  0  0  0  0  0  0  0  0
    3.4621    0.4608   -1.8211 Br  0  5  0  0  0  0  0  0  0  0  0  0
    0.2232   -0.3913    1.1346 H   0  0  0  0  0  0  0  0  0  0  0  0
    0.3706    1.1484    0.2608 H   0  0  0  0  0  0  0  0  0  0  0  0
    1.8145    0.0814    0.4855 H   0  0  0  0  0  0  0  0  0  0  0  0
   -0.7109   -0.5871   -1.2004 H   0  0  0  0  0  0  0  0  0  0  0  0
    0.7516   -0.0316   -1.9336 H   0  0  0  0  0  0  0  0  0  0  0  0
    0.7440   -2.4989   -2.0699 H   0  0  0  0  0  0  0  0  0  0  0  0
    2.0847   -2.0062   -1.0621 H   0  0  0  0  0  0  0  0  0  0  0  0
    0.9100   -3.8580    0.0723 H   0  0  0  0  0  0  0  0  0  0  0  0
    0.8120   -2.4443    1.0464 H   0  0  0  0  0  0  0  0  0  0  0  0
   -1.4787   -3.3650    0.9579 H   0  0  0  0  0  0  0  0  0  0  0  0
   -1.5465   -1.8831    0.1583 H   0  0  0  0  0  0  0  0  0  0  0  0
   -2.6603   -3.4886   -1.3409 H   0  0  0  0  0  0  0  0  0  0  0  0
   -1.2613   -2.9983   -2.1727 H   0  0  0  0  0  0  0  0  0  0  0  0
   -1.2904   -5.4694   -2.2595 H   0  0  0  0  0  0  0  0  0  0  0  0
    0.0786   -5.0497   -1.3628 H   0  0  0  0  0  0  0  0  0  0  0  0
   -1.1066   -6.7560   -0.0127 H   0  0  0  0  0  0  0  0  0  0  0  0
   -1.1566   -5.3517    0.9001 H   0  0  0  0  0  0  0  0  0  0  0  0
   -3.4843   -6.2174    0.8227 H   0  0  0  0  0  0  0  0  0  0  0  0
   -3.5218   -4.7181    0.0326 H   0  0  0  0  0  0  0  0  0  0  0  0
   -4.6444   -6.3306   -1.4840 H   0  0  0  0  0  0  0  0  0  0  0  0
   -3.2872   -5.7883   -2.3072 H   0  0  0  0  0  0  0  0  0  0  0  0
   -3.1602   -8.2595   -2.4683 H   0  0  0  0  0  0  0  0  0  0  0  0
   -1.8260   -7.8243   -1.5623 H   0  0  0  0  0  0  0  0  0  0  0  0
   -2.9627   -9.6236   -0.3005 H   0  0  0  0  0  0  0  0  0  0  0  0
   -3.0204   -8.2068    0.6718 H   0  0  0  0  0  0  0  0  0  0  0  0
   -5.0992   -9.1060    0.6011 H   0  0  0  0  0  0  0  0  0  0  0  0
   -5.3787   -7.6306   -0.1403 H   0  0  0  0  0  0  0  0  0  0  0  0
   -6.4280   -9.0036   -1.8112 H   0  0  0  0  0  0  0  0  0  0  0  0
   -5.0500   -8.8297   -2.5293 H   0  0  0  0  0  0  0  0  0  0  0  0
   -5.4194  -11.2389   -2.5155 H   0  0  0  0  0  0  0  0  0  0  0  0
   -4.0156  -10.9250   -1.5580 H   0  0  0  0  0  0  0  0  0  0  0  0
   -5.3156  -12.5573   -0.3806 H   0  0  0  0  0  0  0  0  0  0  0  0
   -5.2412  -11.1583    0.6244 H   0  0  0  0  0  0  0  0  0  0  0  0
   -7.2955  -13.2026   -1.5760 H   0  0  0  0  0  0  0  0  0  0  0  0
   -8.8373  -12.2674   -1.4207 H   0  0  0  0  0  0  0  0  0  0  0  0
   -7.4945  -11.5916   -2.3453 H   0  0  0  0  0  0  0  0  0  0  0  0
   -7.1720  -11.9931    1.8976 H   0  0  0  0  0  0  0  0  0  0  0  0
   -8.6905  -12.4440    1.0529 H   0  0  0  0  0  0  0  0  0  0  0  0
   -7.1963  -13.4358    0.8406 H   0  0  0  0  0  0  0  0  0  0  0  0
   -7.9370   -9.6126   -0.8612 H   0  0  0  0  0  0  0  0  0  0  0  0
   -9.0063  -10.3672    0.0626 H   0  0  0  0  0  0  0  0  0  0  0  0
   -6.5392   -9.7227    1.7164 H   0  0  0  0  0  0  0  0  0  0  0  0
   -7.6298   -8.3711    1.1666 H   0  0  0  0  0  0  0  0  0  0  0  0
   -8.1284   -9.8141    2.1535 H   0  0  0  0  0  0  0  0  0  0  0  0
  1  2  1  0  0  0  0
  1 23  1  0  0  0  0
  1 24  1  0  0  0  0
  1 25  1  0  0  0  0
  2  3  1  0  0  0  0
  2 26  1  0  0  0  0
  2 27  1  0  0  0  0
  3  4  1  0  0  0  0
  3 28  1  0  0  0  0
  3 29  1  0  0  0  0
  4  5  1  0  0  0  0
  4 30  1  0  0  0  0
  4 31  1  0  0  0  0
  5  6  1  0  0  0  0
  5 32  1  0  0  0  0
  5 33  1  0  0  0  0
  6  7  1  0  0  0  0
  6 34  1  0  0  0  0
  6 35  1  0  0  0  0
  7  8  1  0  0  0  0
  7 36  1  0  0  0  0
  7 37  1  0  0  0  0
  8  9  1  0  0  0  0
  8 38  1  0  0  0  0
  8 39  1  0  0  0  0
  9 10  1  0  0  0  0
  9 40  1  0  0  0  0
  9 41  1  0  0  0  0
 10 11  1  0  0  0  0
 10 42  1  0  0  0  0
 10 43  1  0  0  0  0
 11 12  1  0  0  0  0
 11 44  1  0  0  0  0
 11 45  1  0  0  0  0
 12 13  1  0  0  0  0
 12 46  1  0  0  0  0
 12 47  1  0  0  0  0
 13 14  1  0  0  0  0
 13 48  1  0  0  0  0
 13 49  1  0  0  0  0
 14 15  1  0  0  0  0
 14 50  1  0  0  0  0
 14 51  1  0  0  0  0
 15 16  1  0  0  0  0
 15 52  1  0  0  0  0
 15 53  1  0  0  0  0
 16 17  1  0  0  0  0
 16 54  1  0  0  0  0
 16 55  1  0  0  0  0
 17 18  1  0  0  0  0
 17 19  1  0  0  0  0
 17 20  1  0  0  0  0
 18 56  1  0  0  0  0
 18 57  1  0  0  0  0
 18 58  1  0  0  0  0
 19 59  1  0  0  0  0
 19 60  1  0  0  0  0
 19 61  1  0  0  0  0
 20 21  1  0  0  0  0
 20 62  1  0  0  0  0
 20 63  1  0  0  0  0
 21 64  1  0  0  0  0
 21 65  1  0  0  0  0
 21 66  1  0  0  0  0
M  CHG  2  17   1  22  -1
M  END
$$$$

 OpenBabel05152416213D

 78 79  0  0  0  0  0  0  0  0999 V2000
    1.5206   -0.9253    1.2201 C   0  0  0  0  0  0  0  0  0  0  0  0
    0.1644    1.1161   -0.7733 C   0  0  0  0  0  0  0  0  0  0  0  0
    0.9099    1.1013   -2.5301 C   0  0  0  0  0  0  0  0  0  0  0  0
    0.0869    0.4965   -3.4873 C   0  0  0  0  0  0  0  0  0  0  0  0
   -1.3692    0.4169   -3.2299 C   0  0  0  0  0  0  0  0  0  0  0  0
   -2.1650   -0.6704   -3.5984 C   0  0  0  0  0  0  0  0  0  0  0  0
   -3.5454   -0.5373   -3.4439 C   0  0  0  0  0  0  0  0  0  0  0  0
   -4.0946    0.5152   -2.7171 C   0  0  0  0  0  0  0  0  0  0  0  0
   -3.2940    1.5293   -2.2793 C   0  0  0  0  0  0  0  0  0  0  0  0
   -1.9873    1.5150   -2.6095 C   0  0  0  0  0  0  0  0  0  0  0  0
    0.4963   -0.1744   -4.7503 C   0  0  0  0  0  0  0  0  0  0  0  0
   -0.0301    0.3732   -5.9196 C   0  0  0  0  0  0  0  0  0  0  0  0
    0.2015   -0.2267   -7.1668 C   0  0  0  0  0  0  0  0  0  0  0  0
    1.0190   -1.3680   -7.2887 C   0  0  0  0  0  0  0  0  0  0  0  0
    1.5360   -1.9389   -6.0608 C   0  0  0  0  0  0  0  0  0  0  0  0
    1.3155   -1.3053   -4.8128 C   0  0  0  0  0  0  0  0  0  0  0  0
    1.7144   -1.5115   -8.5021 O   0  0  0  0  0  0  0  0  0  0  0  0
    2.9739   -2.1585   -8.6667 C   0  0  0  0  0  0  0  0  0  0  0  0
    4.2795   -1.5281   -8.0504 C   0  0  0  0  0  0  0  0  0  0  0  0
    4.1283   -1.2423   -6.6520 N   0  0  0  0  0  0  0  0  0  0  0  0
    5.3160   -0.8702   -6.0086 C   0  0  0  0  0  0  0  0  0  0  0  0
    3.3745   -0.0388   -6.4584 C   0  0  0  0  0  0  0  0  0  0  0  0
    2.5603    0.7038   -2.7554 C   0  0  0  0  0  0  0  0  0  0  0  0
    3.1351    1.2538   -3.8033 C   0  0  0  0  0  0  0  0  0  0  0  0
    4.4738    1.0254   -4.0334 C   0  0  0  0  0  0  0  0  0  0  0  0
    5.3299    0.2962   -3.1953 C   0  0  0  0  0  0  0  0  0  0  0  0
    4.8606   -0.3084   -2.1376 C   0  0  0  0  0  0  0  0  0  0  0  0
    3.5899   -0.1839   -1.9402 C   0  0  0  0  0  0  0  0  0  0  0  0
    1.4314   -0.5861   -0.7758 C   0  0  0  0  0  0  0  0  0  0  0  0
    0.4771   -1.8083   -1.0222 C   0  0  0  0  0  0  0  0  0  0  0  0
   -0.3907   -2.3169   -0.2692 O   0  0  0  0  0  0  0  0  0  0  0  0
    0.9031   -2.5499   -1.9870 O   0  0  0  0  0  0  0  0  0  0  0  0
    0.4355    0.9116    1.4278 C   0  0  0  0  0  0  0  0  0  0  0  0
    1.1056    2.2082    1.6172 C   0  0  0  0  0  0  0  0  0  0  0  0
    0.6398    3.3595    0.7135 C   0  0  0  0  0  0  0  0  0  0  0  0
   -0.4105    3.8438    1.0488 O   0  0  0  0  0  0  0  0  0  0  0  0
    1.1474    3.6894   -0.5510 O   0  0  0  0  0  0  0  0  0  0  0  0
   -1.1178    0.6483    1.4886 C   0  0  0  0  0  0  0  0  0  0  0  0
   -1.6002   -0.3231    2.0780 O   0  0  0  0  0  0  0  0  0  0  0  0
   -1.8942    1.3397    0.6513 O   0  0  0  0  0  0  0  0  0  0  0  0
    0.8630    0.3747    2.8731 O   0  0  0  0  0  0  0  0  0  0  0  0
    0.5379   -1.2706    1.2580 H   0  0  0  0  0  0  0  0  0  0  0  0
    0.5570   -1.2042    1.1502 H   0  0  0  0  0  0  0  0  0  0  0  0
    2.5197   -0.5044    1.1547 H   0  0  0  0  0  0  0  0  0  0  0  0
   -0.7432    0.7375   -0.9935 H   0  0  0  0  0  0  0  0  0  0  0  0
    0.7258    1.7935   -0.8277 H   0  0  0  0  0  0  0  0  0  0  0  0
   -1.7352   -1.5729   -4.0205 H   0  0  0  0  0  0  0  0  0  0  0  0
   -4.2074   -1.2316   -3.8883 H   0  0  0  0  0  0  0  0  0  0  0  0
   -5.1402    0.5640   -2.5112 H   0  0  0  0  0  0  0  0  0  0  0  0
   -3.6527    2.3760   -1.7289 H   0  0  0  0  0  0  0  0  0  0  0  0
   -1.4569    2.3724   -2.2677 H   0  0  0  0  0  0  0  0  0  0  0  0
   -0.5802    1.3177   -5.8381 H   0  0  0  0  0  0  0  0  0  0  0  0
   -0.1554    0.2548   -8.0471 H   0  0  0  0  0  0  0  0  0  0  0  0
    2.3946   -2.5913   -6.0549 H   0  0  0  0  0  0  0  0  0  0  0  0
    1.9850   -1.5062   -3.9574 H   0  0  0  0  0  0  0  0  0  0  0  0
    2.8292   -3.1489   -8.2347 H   0  0  0  0  0  0  0  0  0  0  0  0
    3.2435   -2.2906   -9.7392 H   0  0  0  0  0  0  0  0  0  0  0  0
    5.1238   -2.2513   -8.1337 H   0  0  0  0  0  0  0  0  0  0  0  0
    4.5471   -0.5836   -8.5433 H   0  0  0  0  0  0  0  0  0  0  0  0
    5.6174    0.1380   -6.3995 H   0  0  0  0  0  0  0  0  0  0  0  0
    5.0140   -1.0297   -4.9868 H   0  0  0  0  0  0  0  0  0  0  0  0
    6.0988   -1.5688   -6.0506 H   0  0  0  0  0  0  0  0  0  0  0  0
    3.2346    0.8128   -7.0530 H   0  0  0  0  0  0  0  0  0  0  0  0
    2.6695   -0.1504   -7.0087 H   0  0  0  0  0  0  0  0  0  0  0  0
    2.9397   -0.0330   -5.5640 H   0  0  0  0  0  0  0  0  0  0  0  0
    2.5071    1.7825   -4.4895 H   0  0  0  0  0  0  0  0  0  0  0  0
    4.8057    1.3397   -4.9473 H   0  0  0  0  0  0  0  0  0  0  0  0
    6.3381    0.1010   -3.4160 H   0  0  0  0  0  0  0  0  0  0  0  0
    5.4165   -0.9175   -1.4114 H   0  0  0  0  0  0  0  0  0  0  0  0
    3.4972   -0.7918   -1.0268 H   0  0  0  0  0  0  0  0  0  0  0  0
    1.0349   -0.6102   -1.5436 H   0  0  0  0  0  0  0  0  0  0  0  0
    2.1486    0.4684   -0.5652 H   0  0  0  0  0  0  0  0  0  0  0  0
    0.4746   -3.3624   -1.9769 H   0  0  0  0  0  0  0  0  0  0  0  0
    0.7227    2.3571    2.6508 H   0  0  0  0  0  0  0  0  0  0  0  0
    2.1662    1.8447    1.5940 H   0  0  0  0  0  0  0  0  0  0  0  0
    0.6217    3.6178   -1.4109 H   0  0  0  0  0  0  0  0  0  0  0  0
   -2.7962    1.1609    0.4103 H   0  0  0  0  0  0  0  0  0  0  0  0
    0.3471   -0.2050    3.5246 H   0  0  0  0  0  0  0  0  0  0  0  0
  1  2  1  0  0  0  0
  1 42  1  0  0  0  0
  1 43  1  0  0  0  0
  1 44  1  0  0  0  0
  2  3  1  0  0  0  0
  2 45  1  0  0  0  0
  2 46  1  0  0  0  0
  3  4  2  0  0  0  0
  3 23  1  0  0  0  0
  4  5  1  0  0  0  0
  4 11  1  0  0  0  0
  5  6  2  0  0  0  0
  5 10  1  0  0  0  0
  6  7  1  0  0  0  0
  6 47  1  0  0  0  0
  7  8  2  0  0  0  0
  7 48  1  0  0  0  0
  8  9  1  0  0  0  0
  8 49  1  0  0  0  0
  9 10  2  0  0  0  0
  9 50  1  0  0  0  0
 10 51  1  0  0  0  0
 11 12  2  0  0  0  0
 11 16  1  0  0  0  0
 12 13  1  0  0  0  0
 12 52  1  0  0  0  0
 13 14  2  0  0  0  0
 13 53  1  0  0  0  0
 14 15  1  0  0  0  0
 14 17  1  0  0  0  0
 15 16  2  0  0  0  0
 15 54  1  0  0  0  0
 16 55  1  0  0  0  0
 17 18  1  0  0  0  0
 18 19  1  0  0  0  0
 18 56  1  0  0  0  0
 18 57  1  0  0  0  0
 19 20  1  0  0  0  0
 19 58  1  0  0  0  0
 19 59  1  0  0  0  0
 20 21  1  0  0  0  0
 20 22  1  0  0  0  0
 21 60  1  0  0  0  0
 21 61  1  0  0  0  0
 21 62  1  0  0  0  0
 22 63  1  0  0  0  0
 22 64  1  0  0  0  0
 22 65  1  0  0  0  0
 23 24  2  0  0  0  0
 23 28  1  0  0  0  0
 24 25  1  0  0  0  0
 24 66  1  0  0  0  0
 25 26  2  0  0  0  0
 25 67  1  0  0  0  0
 26 27  1  0  0  0  0
 26 68  1  0  0  0  0
 27 28  2  0  0  0  0
 27 69  1  0  0  0  0
 28 70  1  0  0  0  0
 29 30  1  0  0  0  0
 29 33  1  0  0  0  0
 29 71  1  0  0  0  0
 29 72  1  0  0  0  0
 30 31  2  0  0  0  0
 30 32  1  0  0  0  0
 32 73  1  0  0  0  0
 33 34  1  0  0  0  0
 33 38  1  0  0  0  0
 33 41  1  0  0  0  0
 34 35  1  0  0  0  0
 34 74  1  0  0  0  0
 34 75  1  0  0  0  0
 35 36  2  0  0  0  0
 35 37  1  0  0  0  0
 37 76  1  0  0  0  0
 38 39  2  0  0  0  0
 38 40  1  0  0  0  0
 40 77  1  0  0  0  0
 41 78  1  0  0  0  0
M  END
$$$$

 OpenBabel05152416213D

102100  0  0  0  0  0  0  0  0999 V2000
    0.3619   -0.3591   -1.3394 C   0  0  0  0  0  0  0  0  0  0  0  0
    0.3547   -1.9352   -1.0332 C   0  0  0  0  0  0  0  0  0  0  0  0
    1.1239   -2.8494    0.0804 C   0  0  0  0  0  0  0  0  0  0  0  0
    0.9631   -2.2507    1.2576 C   0  0  0  0  0  0  0  0  0  0  0  0
   -1.2727   -2.5689    0.7916 C   0  0  0  0  0  0  0  0  0  0  0  0
   -1.7831   -4.0903    0.8753 C   0  0  0  0  0  0  0  0  0  0  0  0
   -1.2236   -5.2020    2.0536 C   0  0  0  0  0  0  0  0  0  0  0  0
   -1.6674   -4.8457    3.5192 C   0  0  0  0  0  0  0  0  0  0  0  0
   -3.1186   -4.6627    3.6512 N   0  3  0  0  0  0  0  0  0  0  0  0
   -3.6055   -5.9092    3.1477 C   0  0  0  0  0  0  0  0  0  0  0  0
   -3.0471   -7.0210    4.0086 C   0  0  0  0  0  0  0  0  0  0  0  0
   -3.5616   -6.8931    5.4079 C   0  0  0  0  0  0  0  0  0  0  0  0
   -5.0680   -6.7533    5.4273 C   0  0  0  0  0  0  0  0  0  0  0  0
   -5.5753   -8.0578    4.9164 C   0  0  0  0  0  0  0  0  0  0  0  0
   -5.0793   -9.1731    5.8268 C   0  0  0  0  0  0  0  0  0  0  0  0
   -5.5646   -8.9408    7.2467 C   0  0  0  0  0  0  0  0  0  0  0  0
   -7.0763   -8.9236    7.2640 C   0  0  0  0  0  0  0  0  0  0  0  0
   -3.5902   -4.1978    4.9970 C   0  0  0  0  0  0  0  0  0  0  0  0
   -3.1299   -2.9205    5.7225 C   0  0  0  0  0  0  0  0  0  0  0  0
   -3.7924   -1.6239    5.1287 C   0  0  0  0  0  0  0  0  0  0  0  0
   -5.2057   -1.7858    4.7115 C   0  0  0  0  0  0  0  0  0  0  0  0
   -5.6607   -1.5749    6.0623 C   0  0  0  0  0  0  0  0  0  0  0  0
   -5.1563   -0.1791    6.5849 C   0  0  0  0  0  0  0  0  0  0  0  0
   -5.5858    0.8853    5.6028 C   0  0  0  0  0  0  0  0  0  0  0  0
   -7.0866    0.8751    5.5615 C   0  0  0  0  0  0  0  0  0  0  0  0
   -3.7186   -3.6585    2.8310 C   0  0  0  0  0  0  0  0  0  0  0  0
   -3.1837   -2.4846    2.9778 C   0  0  0  0  0  0  0  0  0  0  0  0
   -1.5963   -2.1059    3.7712 C   0  0  0  0  0  0  0  0  0  0  0  0
   -0.5106   -2.2173    2.9670 C   0  0  0  0  0  0  0  0  0  0  0  0
   -1.6974   -0.2793    0.6821 C   0  0  0  0  0  0  0  0  0  0  0  0
   -1.1052    0.5784    1.5490 C   0  0  0  0  0  0  0  0  0  0  0  0
    0.5536    0.3743    1.6754 C   0  0  0  0  0  0  0  0  0  0  0  0
    1.8673    0.1543    0.4935 C   0  0  0  0  0  0  0  0  0  0  0  0
    2.3041    2.6914    0.5932 Br  0  5  0  0  0  0  0  0  0  0  0  0
    0.0020    0.2213   -0.3838 H   0  0  0  0  0  0  0  0  0  0  0  0
   -0.2510    0.8220   -0.9469 H   0  0  0  0  0  0  0  0  0  0  0  0
    1.8869   -0.4335   -1.6372 H   0  0  0  0  0  0  0  0  0  0  0  0
   -0.3948   -1.4367   -1.0401 H   0  0  0  0  0  0  0  0  0  0  0  0
    0.8733   -1.8555   -1.8238 H   0  0  0  0  0  0  0  0  0  0  0  0
    0.6628   -3.7863    0.0160 H   0  0  0  0  0  0  0  0  0  0  0  0
    2.1821   -2.8567    0.1940 H   0  0  0  0  0  0  0  0  0  0  0  0
    1.6275   -2.9887    2.3293 H   0  0  0  0  0  0  0  0  0  0  0  0
    1.3766   -1.8357    2.4200 H   0  0  0  0  0  0  0  0  0  0  0  0
   -1.9524   -1.7659    1.6775 H   0  0  0  0  0  0  0  0  0  0  0  0
   -1.8042   -1.9905    1.4666 H   0  0  0  0  0  0  0  0  0  0  0  0
   -2.5930   -3.5448    0.6453 H   0  0  0  0  0  0  0  0  0  0  0  0
   -1.2645   -4.0480    0.0313 H   0  0  0  0  0  0  0  0  0  0  0  0
   -1.4012   -6.0873    1.7226 H   0  0  0  0  0  0  0  0  0  0  0  0
   -0.0402   -5.2712    2.1640 H   0  0  0  0  0  0  0  0  0  0  0  0
   -1.1584   -5.3841    4.3056 H   0  0  0  0  0  0  0  0  0  0  0  0
   -1.1623   -4.2685    4.1856 H   0  0  0  0  0  0  0  0  0  0  0  0
   -4.6608   -5.8548    3.0399 H   0  0  0  0  0  0  0  0  0  0  0  0
   -3.3318   -6.0542    2.0862 H   0  0  0  0  0  0  0  0  0  0  0  0
   -3.3297   -7.9358    3.5900 H   0  0  0  0  0  0  0  0  0  0  0  0
   -1.9585   -7.0905    4.0093 H   0  0  0  0  0  0  0  0  0  0  0  0
   -3.1228   -7.5606    6.0867 H   0  0  0  0  0  0  0  0  0  0  0  0
   -3.0758   -6.3059    6.0794 H   0  0  0  0  0  0  0  0  0  0  0  0
   -5.4210   -6.4748    6.4193 H   0  0  0  0  0  0  0  0  0  0  0  0
   -5.5008   -5.9753    4.8085 H   0  0  0  0  0  0  0  0  0  0  0  0
   -6.6494   -8.0270    4.8475 H   0  0  0  0  0  0  0  0  0  0  0  0
   -5.2594   -8.2294    3.8862 H   0  0  0  0  0  0  0  0  0  0  0  0
   -5.4229  -10.1295    5.4483 H   0  0  0  0  0  0  0  0  0  0  0  0
   -3.9829   -9.2498    5.8173 H   0  0  0  0  0  0  0  0  0  0  0  0
   -5.1841   -9.7301    7.8975 H   0  0  0  0  0  0  0  0  0  0  0  0
   -5.1751   -7.9984    7.6616 H   0  0  0  0  0  0  0  0  0  0  0  0
   -7.4481   -9.8847    6.8751 H   0  0  0  0  0  0  0  0  0  0  0  0
   -7.4397   -8.7486    8.2767 H   0  0  0  0  0  0  0  0  0  0  0  0
   -7.4811   -8.1073    6.6496 H   0  0  0  0  0  0  0  0  0  0  0  0
   -4.6345   -4.2828    5.0570 H   0  0  0  0  0  0  0  0  0  0  0  0
   -3.0507   -4.6137    5.6359 H   0  0  0  0  0  0  0  0  0  0  0  0
   -3.3711   -2.8569    6.7314 H   0  0  0  0  0  0  0  0  0  0  0  0
   -2.0018   -2.9799    5.7912 H   0  0  0  0  0  0  0  0  0  0  0  0
   -3.1132   -0.7759    5.0174 H   0  0  0  0  0  0  0  0  0  0  0  0
   -3.6864   -0.9027    4.3049 H   0  0  0  0  0  0  0  0  0  0  0  0
   -5.5809   -1.0947    3.8959 H   0  0  0  0  0  0  0  0  0  0  0  0
   -5.5140   -2.7289    4.2775 H   0  0  0  0  0  0  0  0  0  0  0  0
   -6.6996   -1.6801    6.0142 H   0  0  0  0  0  0  0  0  0  0  0  0
   -5.3228   -2.4110    6.6967 H   0  0  0  0  0  0  0  0  0  0  0  0
   -5.4698   -0.0720    7.5820 H   0  0  0  0  0  0  0  0  0  0  0  0
   -4.0337   -0.0933    6.6925 H   0  0  0  0  0  0  0  0  0  0  0  0
   -5.1900    1.8340    5.9447 H   0  0  0  0  0  0  0  0  0  0  0  0
   -5.1770    0.7465    4.5779 H   0  0  0  0  0  0  0  0  0  0  0  0
   -7.4546    1.0133    6.5895 H   0  0  0  0  0  0  0  0  0  0  0  0
   -7.4431    1.6576    4.9017 H   0  0  0  0  0  0  0  0  0  0  0  0
   -7.4828   -0.0711    5.1636 H   0  0  0  0  0  0  0  0  0  0  0  0
   -3.8158   -3.7126    1.9066 H   0  0  0  0  0  0  0  0  0  0  0  0
   -4.7408   -3.5424    2.7241 H   0  0  0  0  0  0  0  0  0  0  0  0
   -3.6725   -1.5550    2.4473 H   0  0  0  0  0  0  0  0  0  0  0  0
   -2.5916   -2.6215    3.6776 H   0  0  0  0  0  0  0  0  0  0  0  0
   -1.2056   -1.0853    3.8317 H   0  0  0  0  0  0  0  0  0  0  0  0
   -0.6579   -2.4892    4.0924 H   0  0  0  0  0  0  0  0  0  0  0  0
   -0.2641   -3.3797    2.3725 H   0  0  0  0  0  0  0  0  0  0  0  0
   -0.2463   -3.3972    2.3418 H   0  0  0  0  0  0  0  0  0  0  0  0
   -1.9781   -0.9247   -0.4109 H   0  0  0  0  0  0  0  0  0  0  0  0
   -2.9720   -0.6208    0.4169 H   0  0  0  0  0  0  0  0  0  0  0  0
   -1.4685    1.2664    0.8798 H   0  0  0  0  0  0  0  0  0  0  0  0
   -1.5482    0.4096    2.5442 H   0  0  0  0  0  0  0  0  0  0  0  0
    0.7152    1.2404    2.1789 H   0  0  0  0  0  0  0  0  0  0  0  0
    1.1990   -0.0549    2.2538 H   0  0  0  0  0  0  0  0  0  0  0  0
    1.7157    1.0698   -0.7794 H   0  0  0  0  0  0  0  0  0  0  0  0
    2.8478   -0.4741    0.6917 H   0  0  0  0  0  0  0  0  0  0  0  0
    1.8915   -0.8034    0.1405 H   0  0  0  0  0  0  0  0  0  0  0  0
  1  2  1  0  0  0  0
  1 35  1  0  0  0  0
  1 36  1  0  0  0  0
  1 37  1  0  0  0  0
  2  3  1  0  0  0  0
  2 38  1  0  0  0  0
  2 39  1  0  0  0  0
  3  4  1  0  0  0  0
  3 40  1  0  0  0  0
  3 41  1  0  0  0  0
  4  5  1  0  0  0  0
  4 42  1  0  0  0  0
  4 43  1  0  0  0  0
  5  6  1  0  0  0  0
  5 44  1  0  0  0  0
  5 45  1  0  0  0  0
  6  7  1  0  0  0  0
  6 46  1  0  0  0  0
  6 47  1  0  0  0  0
  7  8  1  0  0  0  0
  7 48  1  0  0  0  0
  7 49  1  0  0  0  0
  8  9  1  0  0  0  0
  8 50  1  0  0  0  0
  8 51  1  0  0  0  0
  9 10  1  0  0  0  0
  9 18  1  0  0  0  0
  9 26  1  0  0  0  0
 10 11  1  0  0  0  0
 10 52  1  0  0  0  0
 10 53  1  0  0  0  0
 11 12  1  0  0  0  0
 11 54  1  0  0  0  0
 11 55  1  0  0  0  0
 12 13  1  0  0  0  0
 12 56  1  0  0  0  0
 12 57  1  0  0  0  0
 13 14  1  0  0  0  0
 13 58  1  0  0  0  0
 13 59  1  0  0  0  0
 14 15  1  0  0  0  0
 14 60  1  0  0  0  0
 14 61  1  0  0  0  0
 15 16  1  0  0  0  0
 15 62  1  0  0  0  0
 15 63  1  0  0  0  0
 16 17  1  0  0  0  0
 16 64  1  0  0  0  0
 16 65  1  0  0  0  0
 17 66  1  0  0  0  0
 17 67  1  0  0  0  0
 17 68  1  0  0  0  0
 18 19  1  0  0  0  0
 18 69  1  0  0  0  0
 18 70  1  0  0  0  0
 19 20  1  0  0  0  0
 19 71  1  0  0  0  0
 19 72  1  0  0  0  0
 20 21  1  0  0  0  0
 20 73  1  0  0  0  0
 20 74  1  0  0  0  0
 21 22  1  0  0  0  0
 21 75  1  0  0  0  0
 21 76  1  0  0  0  0
 22 23  1  0  0  0  0
 22 77  1  0  0  0  0
 22 78  1  0  0  0  0
 23 24  1  0  0  0  0
 23 79  1  0  0  0  0
 23 80  1  0  0  0  0
 24 25  1  0  0  0  0
 24 81  1  0  0  0  0
 24 82  1  0  0  0  0
 25 83  1  0  0  0  0
 25 84  1  0  0  0  0
 25 85  1  0  0  0  0
 26 27  1  0  0  0  0
 26 86  1  0  0  0  0
 26 87  1  0  0  0  0
 27 28  1  0  0  0  0
 27 88  1  0  0  0  0
 27 89  1  0  0  0  0
 28 29  1  0  0  0  0
 28 90  1  0  0  0  0
 28 91  1  0  0  0  0
 29 30  1  0  0  0  0
 29 92  1  0  0  0  0
 29 93  1  0  0  0  0
 30 31  1  0  0  0  0
 30 94  1  0  0  0  0
 30 95  1  0  0  0  0
 31 32  1  0  0  0  0
 31 96  1  0  0  0  0
 31 97  1  0  0  0  0
 32 33  1  0  0  0  0
 32 98  1  0  0  0  0
 32 99  1  0  0  0  0
 33100  1  0  0  0  0
 33101  1  0  0  0  0
 33102  1  0  0  0  0
M  CHG  2   9   1  34  -1
M  END
$$$$

 OpenBabel05152416213D

102100  0  0  0  0  0  0  0  0999 V2000
    1.8663   -0.6392   -0.2560 C   0  0  0  0  0  0  0  0  0  0  0  0
    0.7702    1.7635    0.6405 C   0  0  0  0  0  0  0  0  0  0  0  0
    1.2196    3.1780   -0.4763 C   0  0  0  0  0  0  0  0  0  0  0  0
    1.2477    2.8412   -2.1132 C   0  0  0  0  0  0  0  0  0  0  0  0
   -0.3352    2.7866   -1.9207 C   0  0  0  0  0  0  0  0  0  0  0  0
   -1.1608    4.0215   -1.3989 C   0  0  0  0  0  0  0  0  0  0  0  0
   -0.8799    4.9033   -2.3336 C   0  0  0  0  0  0  0  0  0  0  0  0
   -1.4549    4.5394   -3.6892 C   0  0  0  0  0  0  0  0  0  0  0  0
   -3.2993    4.4325   -3.6564 P   0  3  0  0  0  0  0  0  0  0  0  0
   -3.8762    6.0314   -3.0494 C   0  0  0  0  0  0  0  0  0  0  0  0
   -3.3661    7.1166   -3.9625 C   0  0  0  0  0  0  0  0  0  0  0  0
   -3.9062    6.9801   -5.3432 C   0  0  0  0  0  0  0  0  0  0  0  0
   -5.4067    6.8764   -5.3851 C   0  0  0  0  0  0  0  0  0  0  0  0
   -5.9149    8.2079   -4.9051 C   0  0  0  0  0  0  0  0  0  0  0  0
   -5.4227    9.3130   -5.8265 C   0  0  0  0  0  0  0  0  0  0  0  0
   -5.9177    9.0730   -7.2371 C   0  0  0  0  0  0  0  0  0  0  0  0
   -7.4261    9.0615   -7.2532 C   0  0  0  0  0  0  0  0  0  0  0  0
   -3.9089    4.1057   -5.4006 C   0  0  0  0  0  0  0  0  0  0  0  0
   -3.3535    2.8224   -5.9746 C   0  0  0  0  0  0  0  0  0  0  0  0
   -3.9171    1.7507   -5.3265 C   0  0  0  0  0  0  0  0  0  0  0  0
   -5.4185    1.6782   -5.0206 C   0  0  0  0  0  0  0  0  0  0  0  0
   -5.9382    1.3893   -6.3542 C   0  0  0  0  0  0  0  0  0  0  0  0
   -5.4294    0.0339   -6.8304 C   0  0  0  0  0  0  0  0  0  0  0  0
   -5.9183   -1.0634   -5.9121 C   0  0  0  0  0  0  0  0  0  0  0  0
   -7.4263   -1.0718   -5.8946 C   0  0  0  0  0  0  0  0  0  0  0  0
   -4.0514    3.0712   -2.5616 C   0  0  0  0  0  0  0  0  0  0  0  0
   -3.6219    1.5568   -2.7376 C   0  0  0  0  0  0  0  0  0  0  0  0
   -2.3046    1.3755   -3.0525 C   0  0  0  0  0  0  0  0  0  0  0  0
   -2.1467    1.5340   -1.6257 C   0  0  0  0  0  0  0  0  0  0  0  0
   -2.6522    0.3702   -0.4798 C   0  0  0  0  0  0  0  0  0  0  0  0
   -1.8667   -0.8167   -1.2307 C   0  0  0  0  0  0  0  0  0  0  0  0
   -0.4236   -0.8519   -1.2489 C   0  0  0  0  0  0  0  0  0  0  0  0
   -0.1849   -0.5747    0.6255 C   0  0  0  0  0  0  0  0  0  0  0  0
    3.1278    1.4428   -0.0827 Br  0  5  0  0  0  0  0  0  0  0  0  0
    1.6427   -0.6087   -1.1349 H   0  0  0  0  0  0  0  0  0  0  0  0
    1.5218   -1.7334    0.5080 H   0  0  0  0  0  0  0  0  0  0  0  0
    3.0132   -0.8171   -0.4189 H   0  0  0  0  0  0  0  0  0  0  0  0
   -0.4629    1.9506    0.7682 H   0  0  0  0  0  0  0  0  0  0  0  0
    0.8581    1.7213    1.7699 H   0  0  0  0  0  0  0  0  0  0  0  0
    0.6760    3.7287    0.1324 H   0  0  0  0  0  0  0  0  0  0  0  0
    2.2569    3.4695   -0.5150 H   0  0  0  0  0  0  0  0  0  0  0  0
    1.0767    3.3089   -2.8327 H   0  0  0  0  0  0  0  0  0  0  0  0
    1.4890    1.6417   -2.5786 H   0  0  0  0  0  0  0  0  0  0  0  0
   -0.4371    2.2480   -2.7494 H   0  0  0  0  0  0  0  0  0  0  0  0
   -0.8469    1.0681   -0.5489 H   0  0  0  0  0  0  0  0  0  0  0  0
   -2.2572    4.0979   -1.2541 H   0  0  0  0  0  0  0  0  0  0  0  0
   -1.1177    3.8575   -0.3038 H   0  0  0  0  0  0  0  0  0  0  0  0
   -1.3005    5.7190   -1.8988 H   0  0  0  0  0  0  0  0  0  0  0  0
    0.1883    4.9395   -2.2669 H   0  0  0  0  0  0  0  0  0  0  0  0
   -1.0863    5.2506   -4.3482 H   0  0  0  0  0  0  0  0  0  0  0  0
   -0.9421    3.7304   -4.1721 H   0  0  0  0  0  0  0  0  0  0  0  0
   -4.9592    6.0054   -3.0012 H   0  0  0  0  0  0  0  0  0  0  0  0
   -3.5141    6.1902   -2.0366 H   0  0  0  0  0  0  0  0  0  0  0  0
   -3.6798    8.0773   -3.6004 H   0  0  0  0  0  0  0  0  0  0  0  0
   -2.2742    7.1163   -3.9803 H   0  0  0  0  0  0  0  0  0  0  0  0
   -3.4873    7.6406   -6.0638 H   0  0  0  0  0  0  0  0  0  0  0  0
   -3.4415    6.2581   -5.7164 H   0  0  0  0  0  0  0  0  0  0  0  0
   -5.7684    6.6312   -6.3823 H   0  0  0  0  0  0  0  0  0  0  0  0
   -5.7980    6.0708   -4.7699 H   0  0  0  0  0  0  0  0  0  0  0  0
   -6.9913    8.1974   -4.8486 H   0  0  0  0  0  0  0  0  0  0  0  0
   -5.5966    8.4009   -3.8840 H   0  0  0  0  0  0  0  0  0  0  0  0
   -5.7691   10.2784   -5.4650 H   0  0  0  0  0  0  0  0  0  0  0  0
   -4.3290    9.3673   -5.8201 H   0  0  0  0  0  0  0  0  0  0  0  0
   -5.5415    9.8519   -7.8992 H   0  0  0  0  0  0  0  0  0  0  0  0
   -5.5355    8.1255   -7.6311 H   0  0  0  0  0  0  0  0  0  0  0  0
   -7.7981   10.0246   -6.8839 H   0  0  0  0  0  0  0  0  0  0  0  0
   -7.7929    8.8761   -8.2594 H   0  0  0  0  0  0  0  0  0  0  0  0
   -7.8247    8.2614   -6.6235 H   0  0  0  0  0  0  0  0  0  0  0  0
   -4.9772    4.1418   -5.3894 H   0  0  0  0  0  0  0  0  0  0  0  0
   -3.4883    4.5526   -6.1846 H   0  0  0  0  0  0  0  0  0  0  0  0
   -3.6799    2.5975   -6.9309 H   0  0  0  0  0  0  0  0  0  0  0  0
   -2.2268    2.7675   -5.9244 H   0  0  0  0  0  0  0  0  0  0  0  0
   -3.4521    0.7411   -5.3289 H   0  0  0  0  0  0  0  0  0  0  0  0
   -3.4983    2.2317   -4.6524 H   0  0  0  0  0  0  0  0  0  0  0  0
   -5.7709    0.9212   -4.2661 H   0  0  0  0  0  0  0  0  0  0  0  0
   -5.8084    2.5844   -4.5651 H   0  0  0  0  0  0  0  0  0  0  0  0
   -7.0026    1.4416   -6.3504 H   0  0  0  0  0  0  0  0  0  0  0  0
   -5.6120    2.1780   -7.0221 H   0  0  0  0  0  0  0  0  0  0  0  0
   -5.7706   -0.1336   -7.8445 H   0  0  0  0  0  0  0  0  0  0  0  0
   -4.3350    0.0055   -6.8858 H   0  0  0  0  0  0  0  0  0  0  0  0
   -5.5415   -2.0259   -6.2561 H   0  0  0  0  0  0  0  0  0  0  0  0
   -5.5349   -0.9277   -4.8948 H   0  0  0  0  0  0  0  0  0  0  0  0
   -7.7981   -1.2330   -6.9136 H   0  0  0  0  0  0  0  0  0  0  0  0
   -7.7929   -1.8500   -5.2312 H   0  0  0  0  0  0  0  0  0  0  0  0
   -7.8252   -0.1266   -5.5164 H   0  0  0  0  0  0  0  0  0  0  0  0
   -3.9285    3.2439   -1.5380 H   0  0  0  0  0  0  0  0  0  0  0  0
   -5.0680    3.0836   -2.5640 H   0  0  0  0  0  0  0  0  0  0  0  0
   -4.0394    0.7206   -2.3553 H   0  0  0  0  0  0  0  0  0  0  0  0
   -4.0040    0.8901   -3.3734 H   0  0  0  0  0  0  0  0  0  0  0  0
   -1.5345    0.6783   -3.4189 H   0  0  0  0  0  0  0  0  0  0  0  0
   -1.8760    2.0944   -3.8238 H   0  0  0  0  0  0  0  0  0  0  0  0
    0.5092    1.2808   -1.2797 H   0  0  0  0  0  0  0  0  0  0  0  0
   -2.1972    2.2962   -0.9299 H   0  0  0  0  0  0  0  0  0  0  0  0
   -2.1931    0.8220    0.5541 H   0  0  0  0  0  0  0  0  0  0  0  0
   -3.3554    0.8905   -0.6182 H   0  0  0  0  0  0  0  0  0  0  0  0
   -1.8504   -1.5171   -0.5402 H   0  0  0  0  0  0  0  0  0  0  0  0
   -1.8358   -0.7857   -2.2560 H   0  0  0  0  0  0  0  0  0  0  0  0
    0.1534   -1.6833   -1.7973 H   0  0  0  0  0  0  0  0  0  0  0  0
    0.0571   -0.0788   -2.0943 H   0  0  0  0  0  0  0  0  0  0  0  0
   -0.4892   -1.2305    1.1257 H   0  0  0  0  0  0  0  0  0  0  0  0
    1.3256   -0.1810    1.5349 H   0  0  0  0  0  0  0  0  0  0  0  0
    0.0820   -0.0128    0.9623 H   0  0  0  0  0  0  0  0  0  0  0  0
  1  2  1  0  0  0  0
  1 35  1  0  0  0  0
  1 36  1  0  0  0  0
  1 37  1  0  0  0  0
  2  3  1  0  0  0  0
  2 38  1  0  0  0  0
  2 39  1  0  0  0  0
  3  4  1  0  0  0  0
  3 40  1  0  0  0  0
  3 41  1  0  0  0  0
  4  5  1  0  0  0  0
  4 42  1  0  0  0  0
  4 43  1  0  0  0  0
  5  6  1  0  0  0  0
  5 44  1  0  0  0  0
  5 45  1  0  0  0  0
  6  7  1  0  0  0  0
  6 46  1  0  0  0  0
  6 47  1  0  0  0  0
  7  8  1  0  0  0  0
  7 48  1  0  0  0  0
  7 49  1  0  0  0  0
  8  9  1  0  0  0  0
  8 50  1  0  0  0  0
  8 51  1  0  0  0  0
  9 10  1  0  0  0  0
  9 18  1  0  0  0  0
  9 26  1  0  0  0  0
 10 11  1  0  0  0  0
 10 52  1  0  0  0  0
 10 53  1  0  0  0  0
 11 12  1  0  0  0  0
 11 54  1  0  0  0  0
 11 55  1  0  0  0  0
 12 13  1  0  0  0  0
 12 56  1  0  0  0  0
 12 57  1  0  0  0  0
 13 14  1  0  0  0  0
 13 58  1  0  0  0  0
 13 59  1  0  0  0  0
 14 15  1  0  0  0  0
 14 60  1  0  0  0  0
 14 61  1  0  0  0  0
 15 16  1  0  0  0  0
 15 62  1  0  0  0  0
 15 63  1  0  0  0  0
 16 17  1  0  0  0  0
 16 64  1  0  0  0  0
 16 65  1  0  0  0  0
 17 66  1  0  0  0  0
 17 67  1  0  0  0  0
 17 68  1  0  0  0  0
 18 19  1  0  0  0  0
 18 69  1  0  0  0  0
 18 70  1  0  0  0  0
 19 20  1  0  0  0  0
 19 71  1  0  0  0  0
 19 72  1  0  0  0  0
 20 21  1  0  0  0  0
 20 73  1  0  0  0  0
 20 74  1  0  0  0  0
 21 22  1  0  0  0  0
 21 75  1  0  0  0  0
 21 76  1  0  0  0  0
 22 23  1  0  0  0  0
 22 77  1  0  0  0  0
 22 78  1  0  0  0  0
 23 24  1  0  0  0  0
 23 79  1  0  0  0  0
 23 80  1  0  0  0  0
 24 25  1  0  0  0  0
 24 81  1  0  0  0  0
 24 82  1  0  0  0  0
 25 83  1  0  0  0  0
 25 84  1  0  0  0  0
 25 85  1  0  0  0  0
 26 27  1  0  0  0  0
 26 86  1  0  0  0  0
 26 87  1  0  0  0  0
 27 28  1  0  0  0  0
 27 88  1  0  0  0  0
 27 89  1  0  0  0  0
 28 29  1  0  0  0  0
 28 90  1  0  0  0  0
 28 91  1  0  0  0  0
 29 30  1  0  0  0  0
 29 92  1  0  0  0  0
 29 93  1  0  0  0  0
 30 31  1  0  0  0  0
 30 94  1  0  0  0  0
 30 95  1  0  0  0  0
 31 32  1  0  0  0  0
 31 96  1  0  0  0  0
 31 97  1  0  0  0  0
 32 33  1  0  0  0  0
 32 98  1  0  0  0  0
 32 99  1  0  0  0  0
 33100  1  0  0  0  0
 33101  1  0  0  0  0
 33102  1  0  0  0  0
M  CHG  2   9   1  34  -1
M  END
$$$$

 OpenBabel05152416213D

 76 75  0  0  0  0  0  0  0  0999 V2000
    1.2102   -0.7032   -0.9976 C   0  0  0  0  0  0  0  0  0  0  0  0
    0.8040    1.0240   -1.3039 C   0  0  0  0  0  0  0  0  0  0  0  0
    1.0811    1.2157   -2.6689 C   0  0  0  0  0  0  0  0  0  0  0  0
    0.3735    0.0064   -3.3482 C   0  0  0  0  0  0  0  0  0  0  0  0
   -1.1663    0.0016   -3.0703 C   0  0  0  0  0  0  0  0  0  0  0  0
   -1.6662    1.2576   -3.7467 C   0  0  0  0  0  0  0  0  0  0  0  0
   -1.1358    1.2325   -5.1950 C   0  0  0  0  0  0  0  0  0  0  0  0
   -1.6101   -0.0855   -5.8591 C   0  0  0  0  0  0  0  0  0  0  0  0
   -3.1490   -0.1068   -5.8126 C   0  0  0  0  0  0  0  0  0  0  0  0
   -3.6644    1.1511   -6.5381 C   0  0  0  0  0  0  0  0  0  0  0  0
   -3.1335    1.1372   -7.9856 C   0  0  0  0  0  0  0  0  0  0  0  0
   -3.6299   -0.1427   -8.6860 C   0  0  0  0  0  0  0  0  0  0  0  0
   -5.1697   -0.1595   -8.6787 C   0  0  0  0  0  0  0  0  0  0  0  0
   -5.7017    1.0796   -9.4165 C   0  0  0  0  0  0  0  0  0  0  0  0
   -5.1826    1.0985  -10.8688 C   0  0  0  0  0  0  0  0  0  0  0  0
   -5.6882   -0.1434  -11.6129 C   0  0  0  0  0  0  0  0  0  0  0  0
   -7.1508   -0.1596  -11.5968 N   0  0  0  0  0  0  0  0  0  0  0  0
   -7.9713    0.9168  -11.6091 C   0  0  0  0  0  0  0  0  0  0  0  0
   -9.2631    0.4804  -11.5682 C   0  0  0  0  0  0  0  0  0  0  0  0
   -9.2461   -0.8627  -11.5395 N   0  3  0  0  0  0  0  0  0  0  0  0
   -7.9525   -1.2386  -11.5410 C   0  0  0  0  0  0  0  0  0  0  0  0
  -10.4101   -1.7254  -11.5218 C   0  0  0  0  0  0  0  0  0  0  0  0
    0.4412    0.3961    1.2090 C   0  0  0  0  0  0  0  0  0  0  0  0
   -0.6632    0.1518    0.3144 F   0  0  0  0  0  0  0  0  0  0  0  0
    0.0722   -0.8145    1.8098 F   0  0  0  0  0  0  0  0  0  0  0  0
   -0.0804    1.5166    1.8085 F   0  0  0  0  0  0  0  0  0  0  0  0
    2.6202    0.6145    0.8141 S   0  0  0  0  0  0  0  0  0  0  0  0
    3.3793   -0.4221   -0.0809 O   0  0  0  0  0  0  0  0  0  0  0  0
    3.3528    1.7794    0.0269 O   0  0  0  0  0  0  0  0  0  0  0  0
    3.5986    0.1382    2.1589 N   0  5  0  0  0  0  0  0  0  0  0  0
    5.3183   -0.0805    1.8393 S   0  0  0  0  0  0  0  0  0  0  0  0
    5.5605   -1.2885    0.8985 O   0  0  0  0  0  0  0  0  0  0  0  0
    5.7757    1.1857    1.0972 O   0  0  0  0  0  0  0  0  0  0  0  0
    5.8357   -0.2835    3.4854 C   0  0  0  0  0  0  0  0  0  0  0  0
    5.3026    0.7819    4.1902 F   0  0  0  0  0  0  0  0  0  0  0  0
    5.2859   -1.4662    3.9565 F   0  0  0  0  0  0  0  0  0  0  0  0
    7.2016   -0.2973    3.5190 F   0  0  0  0  0  0  0  0  0  0  0  0
    0.6403   -1.5457   -1.3887 H   0  0  0  0  0  0  0  0  0  0  0  0
    1.3897   -1.2513   -0.0849 H   0  0  0  0  0  0  0  0  0  0  0  0
    1.3748   -1.2542   -0.0898 H   0  0  0  0  0  0  0  0  0  0  0  0
   -0.2207    1.5142   -1.1551 H   0  0  0  0  0  0  0  0  0  0  0  0
    1.2336    1.9414   -0.7542 H   0  0  0  0  0  0  0  0  0  0  0  0
    0.7500    2.2345   -3.0079 H   0  0  0  0  0  0  0  0  0  0  0  0
    2.1806    1.2082   -2.6838 H   0  0  0  0  0  0  0  0  0  0  0  0
    0.8113   -0.1060   -4.3054 H   0  0  0  0  0  0  0  0  0  0  0  0
    0.7090   -1.0121   -3.1877 H   0  0  0  0  0  0  0  0  0  0  0  0
   -1.5650   -0.9622   -3.4425 H   0  0  0  0  0  0  0  0  0  0  0  0
   -1.6175   -0.0211   -2.0499 H   0  0  0  0  0  0  0  0  0  0  0  0
   -2.7609    1.3209   -3.6608 H   0  0  0  0  0  0  0  0  0  0  0  0
   -1.3404    2.1598   -3.2058 H   0  0  0  0  0  0  0  0  0  0  0  0
   -1.4071    2.1559   -5.7039 H   0  0  0  0  0  0  0  0  0  0  0  0
   -0.0440    1.3331   -5.2882 H   0  0  0  0  0  0  0  0  0  0  0  0
   -1.1754   -0.1783   -6.8620 H   0  0  0  0  0  0  0  0  0  0  0  0
   -1.2085   -1.0147   -5.4135 H   0  0  0  0  0  0  0  0  0  0  0  0
   -3.5302   -1.0522   -6.2243 H   0  0  0  0  0  0  0  0  0  0  0  0
   -3.5672   -0.1562   -4.7923 H   0  0  0  0  0  0  0  0  0  0  0  0
   -4.7585    1.2112   -6.4644 H   0  0  0  0  0  0  0  0  0  0  0  0
   -3.3843    2.0943   -6.0409 H   0  0  0  0  0  0  0  0  0  0  0  0
   -3.4217    2.0637   -8.5032 H   0  0  0  0  0  0  0  0  0  0  0  0
   -2.0342    1.2022   -8.0535 H   0  0  0  0  0  0  0  0  0  0  0  0
   -3.1997   -0.2127   -9.6961 H   0  0  0  0  0  0  0  0  0  0  0  0
   -3.2422   -1.0695   -8.2302 H   0  0  0  0  0  0  0  0  0  0  0  0
   -5.5415   -1.1005   -9.1114 H   0  0  0  0  0  0  0  0  0  0  0  0
   -5.5980   -0.2006   -7.6610 H   0  0  0  0  0  0  0  0  0  0  0  0
   -6.8030    1.0747   -9.3614 H   0  0  0  0  0  0  0  0  0  0  0  0
   -5.4275    2.0271   -8.9136 H   0  0  0  0  0  0  0  0  0  0  0  0
   -5.5219    2.0167  -11.3782 H   0  0  0  0  0  0  0  0  0  0  0  0
   -4.0806    1.1662  -10.9315 H   0  0  0  0  0  0  0  0  0  0  0  0
   -5.3208   -0.1377  -12.6525 H   0  0  0  0  0  0  0  0  0  0  0  0
   -5.2856   -1.0863  -11.1793 H   0  0  0  0  0  0  0  0  0  0  0  0
   -7.6650    1.9526  -11.6220 H   0  0  0  0  0  0  0  0  0  0  0  0
  -10.1456    1.1025  -11.5616 H   0  0  0  0  0  0  0  0  0  0  0  0
   -7.6067   -2.2661  -11.5117 H   0  0  0  0  0  0  0  0  0  0  0  0
  -10.3927   -2.3701  -12.4244 H   0  0  0  0  0  0  0  0  0  0  0  0
  -10.3988   -2.3472  -10.6051 H   0  0  0  0  0  0  0  0  0  0  0  0
  -11.3336   -1.1075  -11.5380 H   0  0  0  0  0  0  0  0  0  0  0  0
  1  2  1  0  0  0  0
  1 38  1  0  0  0  0
  1 39  1  0  0  0  0
  1 40  1  0  0  0  0
  2  3  1  0  0  0  0
  2 41  1  0  0  0  0
  2 42  1  0  0  0  0
  3  4  1  0  0  0  0
  3 43  1  0  0  0  0
  3 44  1  0  0  0  0
  4  5  1  0  0  0  0
  4 45  1  0  0  0  0
  4 46  1  0  0  0  0
  5  6  1  0  0  0  0
  5 47  1  0  0  0  0
  5 48  1  0  0  0  0
  6  7  1  0  0  0  0
  6 49  1  0  0  0  0
  6 50  1  0  0  0  0
  7  8  1  0  0  0  0
  7 51  1  0  0  0  0
  7 52  1  0  0  0  0
  8  9  1  0  0  0  0
  8 53  1  0  0  0  0
  8 54  1  0  0  0  0
  9 10  1  0  0  0  0
  9 55  1  0  0  0  0
  9 56  1  0  0  0  0
 10 11  1  0  0  0  0
 10 57  1  0  0  0  0
 10 58  1  0  0  0  0
 11 12  1  0  0  0  0
 11 59  1  0  0  0  0
 11 60  1  0  0  0  0
 12 13  1  0  0  0  0
 12 61  1  0  0  0  0
 12 62  1  0  0  0  0
 13 14  1  0  0  0  0
 13 63  1  0  0  0  0
 13 64  1  0  0  0  0
 14 15  1  0  0  0  0
 14 65  1  0  0  0  0
 14 66  1  0  0  0  0
 15 16  1  0  0  0  0
 15 67  1  0  0  0  0
 15 68  1  0  0  0  0
 16 17  1  0  0  0  0
 16 69  1  0  0  0  0
 16 70  1  0  0  0  0
 17 18  1  0  0  0  0
 17 21  1  0  0  0  0
 18 19  2  0  0  0  0
 18 71  1  0  0  0  0
 19 20  1  0  0  0  0
 19 72  1  0  0  0  0
 20 21  2  0  0  0  0
 20 22  1  0  0  0  0
 21 73  1  0  0  0  0
 22 74  1  0  0  0  0
 22 75  1  0  0  0  0
 22 76  1  0  0  0  0
 23 24  1  0  0  0  0
 23 25  1  0  0  0  0
 23 26  1  0  0  0  0
 23 27  1  0  0  0  0
 27 28  2  0  0  0  0
 27 29  2  0  0  0  0
 27 30  1  0  0  0  0
 30 31  1  0  0  0  0
 31 32  2  0  0  0  0
 31 33  2  0  0  0  0
 31 34  1  0  0  0  0
 34 35  1  0  0  0  0
 34 36  1  0  0  0  0
 34 37  1  0  0  0  0
M  CHG  2  20   1  30  -1
M  END
$$$$

 OpenBabel05152416213D

 60 60  0  0  0  0  0  0  0  0999 V2000
    1.1118    0.0831    0.2113 C   0  0  0  0  0  0  0  0  0  0  0  0
    0.7035    1.1464   -0.8050 C   0  0  0  0  0  0  0  0  0  0  0  0
    1.2208    0.7665   -2.2014 C   0  0  0  0  0  0  0  0  0  0  0  0
    0.6331   -0.5836   -2.6688 C   0  0  0  0  0  0  0  0  0  0  0  0
   -0.9069   -0.5144   -2.7188 C   0  0  0  0  0  0  0  0  0  0  0  0
   -1.3371    0.6127   -3.6830 C   0  0  0  0  0  0  0  0  0  0  0  0
   -0.7137    0.3594   -5.0910 C   0  0  0  0  0  0  0  0  0  0  0  0
   -1.1435   -1.0138   -5.6417 C   0  0  0  0  0  0  0  0  0  0  0  0
   -2.6452   -1.0499   -5.6643 C   0  0  0  0  0  0  0  0  0  0  0  0
   -3.2271    0.0691   -6.5550 C   0  0  0  0  0  0  0  0  0  0  0  0
   -2.9545   -0.2586   -8.0159 C   0  0  0  0  0  0  0  0  0  0  0  0
   -3.5779   -1.6162   -8.4571 C   0  0  0  0  0  0  0  0  0  0  0  0
   -5.0733   -1.7102   -8.4693 N   0  3  0  0  0  0  0  0  0  0  0  0
   -5.5976   -0.6060   -9.3158 C   0  0  0  0  0  0  0  0  0  0  0  0
   -5.4241   -2.9644   -9.1765 C   0  0  0  0  0  0  0  0  0  0  0  0
   -5.8257   -1.6865   -7.1265 C   0  0  0  0  0  0  0  0  0  0  0  0
   -5.4154   -2.6901   -6.0262 C   0  0  0  0  0  0  0  0  0  0  0  0
   -5.3833   -4.0752   -6.2555 C   0  0  0  0  0  0  0  0  0  0  0  0
   -4.9772   -4.9761   -5.2790 C   0  0  0  0  0  0  0  0  0  0  0  0
   -4.6025   -4.5253   -4.0182 C   0  0  0  0  0  0  0  0  0  0  0  0
   -4.6748   -3.1650   -3.7259 C   0  0  0  0  0  0  0  0  0  0  0  0
   -5.1079   -2.2534   -4.7065 C   0  0  0  0  0  0  0  0  0  0  0  0
    0.6631   -0.9056   -0.0172 H   0  0  0  0  0  0  0  0  0  0  0  0
    0.7570    0.3601    1.2183 H   0  0  0  0  0  0  0  0  0  0  0  0
    2.2176   -0.0126    0.1988 H   0  0  0  0  0  0  0  0  0  0  0  0
   -0.4005    1.2767   -0.7933 H   0  0  0  0  0  0  0  0  0  0  0  0
    1.1231    2.1285   -0.5159 H   0  0  0  0  0  0  0  0  0  0  0  0
    0.9808    1.5843   -2.9147 H   0  0  0  0  0  0  0  0  0  0  0  0
    2.3247    0.7110   -2.2037 H   0  0  0  0  0  0  0  0  0  0  0  0
    1.0655   -0.8595   -3.6492 H   0  0  0  0  0  0  0  0  0  0  0  0
    0.9566   -1.4242   -2.0354 H   0  0  0  0  0  0  0  0  0  0  0  0
   -1.3171   -1.5021   -3.0127 H   0  0  0  0  0  0  0  0  0  0  0  0
   -1.3561   -0.3605   -1.7199 H   0  0  0  0  0  0  0  0  0  0  0  0
   -2.4437    0.7077   -3.6759 H   0  0  0  0  0  0  0  0  0  0  0  0
   -1.0556    1.6151   -3.3243 H   0  0  0  0  0  0  0  0  0  0  0  0
   -0.9626    1.1878   -5.7687 H   0  0  0  0  0  0  0  0  0  0  0  0
    0.3821    0.4143   -5.1040 H   0  0  0  0  0  0  0  0  0  0  0  0
   -0.7189   -1.2248   -6.6380 H   0  0  0  0  0  0  0  0  0  0  0  0
   -0.7920   -1.8604   -5.0163 H   0  0  0  0  0  0  0  0  0  0  0  0
   -2.9436   -2.0651   -5.9409 H   0  0  0  0  0  0  0  0  0  0  0  0
   -3.0144   -0.9593   -4.6405 H   0  0  0  0  0  0  0  0  0  0  0  0
   -4.2607    0.2625   -6.3278 H   0  0  0  0  0  0  0  0  0  0  0  0
   -2.8738    1.0831   -6.3202 H   0  0  0  0  0  0  0  0  0  0  0  0
   -3.2700    0.5807   -8.6603 H   0  0  0  0  0  0  0  0  0  0  0  0
   -1.8582   -0.3009   -8.1753 H   0  0  0  0  0  0  0  0  0  0  0  0
   -3.1867   -1.7737   -9.4921 H   0  0  0  0  0  0  0  0  0  0  0  0
   -3.1323   -2.4760   -7.9163 H   0  0  0  0  0  0  0  0  0  0  0  0
   -5.1525   -0.6539  -10.3417 H   0  0  0  0  0  0  0  0  0  0  0  0
   -6.6978   -0.6542   -9.4107 H   0  0  0  0  0  0  0  0  0  0  0  0
   -5.3613    0.3945   -8.9033 H   0  0  0  0  0  0  0  0  0  0  0  0
   -4.7846   -3.8085   -8.8539 H   0  0  0  0  0  0  0  0  0  0  0  0
   -6.5046   -3.2049   -9.0608 H   0  0  0  0  0  0  0  0  0  0  0  0
   -5.2031   -2.9118  -10.2623 H   0  0  0  0  0  0  0  0  0  0  0  0
   -5.9010   -0.6723   -6.7236 H   0  0  0  0  0  0  0  0  0  0  0  0
   -6.8981   -1.8587   -7.3137 H   0  0  0  0  0  0  0  0  0  0  0  0
   -5.6747   -4.5097   -7.1828 H   0  0  0  0  0  0  0  0  0  0  0  0
   -4.9541   -6.0300   -5.5133 H   0  0  0  0  0  0  0  0  0  0  0  0
   -4.2765   -5.2403   -3.2739 H   0  0  0  0  0  0  0  0  0  0  0  0
   -4.3874   -2.8215   -2.7366 H   0  0  0  0  0  0  0  0  0  0  0  0
   -5.1595   -1.2042   -4.4424 H   0  0  0  0  0  0  0  0  0  0  0  0
  1  2  1  0  0  0  0
  1 23  1  0  0  0  0
  1 24  1  0  0  0  0
  1 25  1  0  0  0  0
  2  3  1  0  0  0  0
  2 26  1  0  0  0  0
  2 27  1  0  0  0  0
  3  4  1  0  0  0  0
  3 28  1  0  0  0  0
  3 29  1  0  0  0  0
  4  5  1  0  0  0  0
  4 30  1  0  0  0  0
  4 31  1  0  0  0  0
  5  6  1  0  0  0  0
  5 32  1  0  0  0  0
  5 33  1  0  0  0  0
  6  7  1  0  0  0  0
  6 34  1  0  0  0  0
  6 35  1  0  0  0  0
  7  8  1  0  0  0  0
  7 36  1  0  0  0  0
  7 37  1  0  0  0  0
  8  9  1  0  0  0  0
  8 38  1  0  0  0  0
  8 39  1  0  0  0  0
  9 10  1  0  0  0  0
  9 40  1  0  0  0  0
  9 41  1  0  0  0  0
 10 11  1  0  0  0  0
 10 42  1  0  0  0  0
 10 43  1  0  0  0  0
 11 12  1  0  0  0  0
 11 44  1  0  0  0  0
 11 45  1  0  0  0  0
 12 13  1  0  0  0  0
 12 46  1  0  0  0  0
 12 47  1  0  0  0  0
 13 14  1  0  0  0  0
 13 15  1  0  0  0  0
 13 16  1  0  0  0  0
 14 48  1  0  0  0  0
 14 49  1  0  0  0  0
 14 50  1  0  0  0  0
 15 51  1  0  0  0  0
 15 52  1  0  0  0  0
 15 53  1  0  0  0  0
 16 17  1  0  0  0  0
 16 54  1  0  0  0  0
 16 55  1  0  0  0  0
 17 18  2  0  0  0  0
 17 22  1  0  0  0  0
 18 19  1  0  0  0  0
 18 56  1  0  0  0  0
 19 20  2  0  0  0  0
 19 57  1  0  0  0  0
 20 21  1  0  0  0  0
 20 58  1  0  0  0  0
 21 22  2  0  0  0  0
 21 59  1  0  0  0  0
 22 60  1  0  0  0  0
M  CHG  1  13   1
M  END
$$$$

 OpenBabel05152416213D

 78 79  0  0  0  0  0  0  0  0999 V2000
    2.1084    0.3671    0.6626 C   0  0  0  0  0  0  0  0  0  0  0  0
    1.2354    1.7956    0.3002 C   0  0  0  0  0  0  0  0  0  0  0  0
    1.3036    2.3887   -1.1448 C   0  0  0  0  0  0  0  0  0  0  0  0
    0.2677    2.8399   -2.1004 C   0  0  0  0  0  0  0  0  0  0  0  0
   -1.2799    2.6709   -1.8933 C   0  0  0  0  0  0  0  0  0  0  0  0
   -2.1645    2.0827   -2.9002 C   0  0  0  0  0  0  0  0  0  0  0  0
   -3.5413    1.8571   -2.6503 C   0  0  0  0  0  0  0  0  0  0  0  0
   -4.0764    2.1838   -1.4109 C   0  0  0  0  0  0  0  0  0  0  0  0
   -3.2528    2.7522   -0.4437 C   0  0  0  0  0  0  0  0  0  0  0  0
   -1.9008    3.0125   -0.6913 C   0  0  0  0  0  0  0  0  0  0  0  0
    0.5566    3.2141   -3.5884 C   0  0  0  0  0  0  0  0  0  0  0  0
   -0.1082    4.2947   -4.2173 C   0  0  0  0  0  0  0  0  0  0  0  0
    0.1312    4.6019   -5.5853 C   0  0  0  0  0  0  0  0  0  0  0  0
    0.9983    3.7915   -6.3724 C   0  0  0  0  0  0  0  0  0  0  0  0
    1.5220    2.6283   -5.8050 C   0  0  0  0  0  0  0  0  0  0  0  0
    1.3916    2.4323   -4.4404 C   0  0  0  0  0  0  0  0  0  0  0  0
    1.6245    4.3254   -7.4741 O   0  0  0  0  0  0  0  0  0  0  0  0
    2.9177    3.9600   -7.9504 C   0  0  0  0  0  0  0  0  0  0  0  0
    4.2299    4.1429   -7.0608 C   0  0  0  0  0  0  0  0  0  0  0  0
    4.1300    3.5205   -5.7602 N   0  0  0  0  0  0  0  0  0  0  0  0
    5.3917    3.2341   -5.1017 C   0  0  0  0  0  0  0  0  0  0  0  0
    3.4260    4.4174   -4.8538 C   0  0  0  0  0  0  0  0  0  0  0  0
    2.7089    2.3842   -1.4690 C   0  0  0  0  0  0  0  0  0  0  0  0
    3.2513    3.5466   -1.8535 C   0  0  0  0  0  0  0  0  0  0  0  0
    4.5929    3.5570   -2.1947 C   0  0  0  0  0  0  0  0  0  0  0  0
    5.3996    2.4120   -2.0739 C   0  0  0  0  0  0  0  0  0  0  0  0
    4.8685    1.2484   -1.6419 C   0  0  0  0  0  0  0  0  0  0  0  0
    3.5551    1.2347   -1.3930 C   0  0  0  0  0  0  0  0  0  0  0  0
   -0.0695   -0.5660   -0.6223 C   0  0  0  0  0  0  0  0  0  0  0  0
   -0.2898   -0.3303   -2.1189 C   0  0  0  0  0  0  0  0  0  0  0  0
   -1.3415   -0.7085   -2.6461 O   0  0  0  0  0  0  0  0  0  0  0  0
    0.5152    0.4011   -2.8941 O   0  0  0  0  0  0  0  0  0  0  0  0
    0.0856   -1.9117    0.2654 C   0  0  0  0  0  0  0  0  0  0  0  0
    0.7259   -2.1165    1.7706 C   0  0  0  0  0  0  0  0  0  0  0  0
    0.2993   -1.1934    2.9694 C   0  0  0  0  0  0  0  0  0  0  0  0
   -0.4807   -1.6225    3.7961 O   0  0  0  0  0  0  0  0  0  0  0  0
    0.7851    0.0728    3.1462 O   0  0  0  0  0  0  0  0  0  0  0  0
   -1.3995   -2.0725    0.3711 C   0  0  0  0  0  0  0  0  0  0  0  0
   -2.0021   -2.3835   -0.6369 O   0  0  0  0  0  0  0  0  0  0  0  0
   -1.9932   -1.1862    1.2347 O   0  0  0  0  0  0  0  0  0  0  0  0
    0.8247   -2.8546   -0.4914 O   0  0  0  0  0  0  0  0  0  0  0  0
    2.2131   -0.6218    0.0361 H   0  0  0  0  0  0  0  0  0  0  0  0
    1.5157   -0.0666    1.2734 H   0  0  0  0  0  0  0  0  0  0  0  0
    3.1022    0.1680    1.0988 H   0  0  0  0  0  0  0  0  0  0  0  0
    0.1508    1.8679    0.3495 H   0  0  0  0  0  0  0  0  0  0  0  0
    1.3401    2.4903    1.1528 H   0  0  0  0  0  0  0  0  0  0  0  0
   -1.8387    1.7217   -3.8732 H   0  0  0  0  0  0  0  0  0  0  0  0
   -4.2040    1.4053   -3.3952 H   0  0  0  0  0  0  0  0  0  0  0  0
   -5.1250    1.9992   -1.1877 H   0  0  0  0  0  0  0  0  0  0  0  0
   -3.6494    2.9949    0.5269 H   0  0  0  0  0  0  0  0  0  0  0  0
   -1.3395    3.4895    0.0799 H   0  0  0  0  0  0  0  0  0  0  0  0
   -0.7208    4.9526   -3.6069 H   0  0  0  0  0  0  0  0  0  0  0  0
   -0.2527    5.5360   -5.9698 H   0  0  0  0  0  0  0  0  0  0  0  0
    2.2345    1.9874   -6.3166 H   0  0  0  0  0  0  0  0  0  0  0  0
    2.0333    1.6515   -4.0739 H   0  0  0  0  0  0  0  0  0  0  0  0
    2.8573    2.9028   -8.2541 H   0  0  0  0  0  0  0  0  0  0  0  0
    3.1485    4.5748   -8.8394 H   0  0  0  0  0  0  0  0  0  0  0  0
    5.0697    3.6437   -7.6042 H   0  0  0  0  0  0  0  0  0  0  0  0
    4.5318    5.1971   -6.8971 H   0  0  0  0  0  0  0  0  0  0  0  0
    5.8116    4.1771   -4.6645 H   0  0  0  0  0  0  0  0  0  0  0  0
    5.1203    2.4435   -4.3926 H   0  0  0  0  0  0  0  0  0  0  0  0
    6.1549    2.7301   -5.7017 H   0  0  0  0  0  0  0  0  0  0  0  0
    3.6350    5.4690   -4.7102 H   0  0  0  0  0  0  0  0  0  0  0  0
    2.5683    4.7558   -5.2529 H   0  0  0  0  0  0  0  0  0  0  0  0
    3.1298    3.8438   -4.0514 H   0  0  0  0  0  0  0  0  0  0  0  0
    2.6046    4.4112   -2.0035 H   0  0  0  0  0  0  0  0  0  0  0  0
    4.9606    4.4374   -2.6418 H   0  0  0  0  0  0  0  0  0  0  0  0
    6.4075    2.3730   -2.4059 H   0  0  0  0  0  0  0  0  0  0  0  0
    5.4236    0.3154   -1.5512 H   0  0  0  0  0  0  0  0  0  0  0  0
    3.3249    0.2563   -1.2098 H   0  0  0  0  0  0  0  0  0  0  0  0
   -0.5536    0.1277    0.0828 H   0  0  0  0  0  0  0  0  0  0  0  0
    0.7385   -0.0753   -0.9189 H   0  0  0  0  0  0  0  0  0  0  0  0
    0.0839    0.8052   -3.6468 H   0  0  0  0  0  0  0  0  0  0  0  0
    0.4960   -3.1724    2.0502 H   0  0  0  0  0  0  0  0  0  0  0  0
    1.8557   -2.1752    1.7477 H   0  0  0  0  0  0  0  0  0  0  0  0
    0.3675    0.8174    3.5955 H   0  0  0  0  0  0  0  0  0  0  0  0
   -2.8134   -0.7070    1.0354 H   0  0  0  0  0  0  0  0  0  0  0  0
    0.2627   -3.5393   -0.9102 H   0  0  0  0  0  0  0  0  0  0  0  0
  1  2  1  0  0  0  0
  1 42  1  0  0  0  0
  1 43  1  0  0  0  0
  1 44  1  0  0  0  0
  2  3  1  0  0  0  0
  2 45  1  0  0  0  0
  2 46  1  0  0  0  0
  3  4  2  0  0  0  0
  3 23  1  0  0  0  0
  4  5  1  0  0  0  0
  4 11  1  0  0  0  0
  5  6  2  0  0  0  0
  5 10  1  0  0  0  0
  6  7  1  0  0  0  0
  6 47  1  0  0  0  0
  7  8  2  0  0  0  0
  7 48  1  0  0  0  0
  8  9  1  0  0  0  0
  8 49  1  0  0  0  0
  9 10  2  0  0  0  0
  9 50  1  0  0  0  0
 10 51  1  0  0  0  0
 11 12  2  0  0  0  0
 11 16  1  0  0  0  0
 12 13  1  0  0  0  0
 12 52  1  0  0  0  0
 13 14  2  0  0  0  0
 13 53  1  0  0  0  0
 14 15  1  0  0  0  0
 14 17  1  0  0  0  0
 15 16  2  0  0  0  0
 15 54  1  0  0  0  0
 16 55  1  0  0  0  0
 17 18  1  0  0  0  0
 18 19  1  0  0  0  0
 18 56  1  0  0  0  0
 18 57  1  0  0  0  0
 19 20  1  0  0  0  0
 19 58  1  0  0  0  0
 19 59  1  0  0  0  0
 20 21  1  0  0  0  0
 20 22  1  0  0  0  0
 21 60  1  0  0  0  0
 21 61  1  0  0  0  0
 21 62  1  0  0  0  0
 22 63  1  0  0  0  0
 22 64  1  0  0  0  0
 22 65  1  0  0  0  0
 23 24  2  0  0  0  0
 23 28  1  0  0  0  0
 24 25  1  0  0  0  0
 24 66  1  0  0  0  0
 25 26  2  0  0  0  0
 25 67  1  0  0  0  0
 26 27  1  0  0  0  0
 26 68  1  0  0  0  0
 27 28  2  0  0  0  0
 27 69  1  0  0  0  0
 28 70  1  0  0  0  0
 29 30  1  0  0  0  0
 29 33  1  0  0  0  0
 29 71  1  0  0  0  0
 29 72  1  0  0  0  0
 30 31  2  0  0  0  0
 30 32  1  0  0  0  0
 32 73  1  0  0  0  0
 33 34  1  0  0  0  0
 33 38  1  0  0  0  0
 33 41  1  0  0  0  0
 34 35  1  0  0  0  0
 34 74  1  0  0  0  0
 34 75  1  0  0  0  0
 35 36  2  0  0  0  0
 35 37  1  0  0  0  0
 37 76  1  0  0  0  0
 38 39  2  0  0  0  0
 38 40  1  0  0  0  0
 40 77  1  0  0  0  0
 41 78  1  0  0  0  0
M  END
$$$$

 OpenBabel05152416213D

 54 61  0  0  1  0  0  0  0  0999 V2000
    0.6562   -0.3458    0.7321 C   0  0  0  0  0  0  0  0  0  0  0  0
    0.3839   -0.8371    3.1794 C   0  0  1  0  0  0  0  0  0  0  0  0
    0.8573    0.2845    3.2099 C   0  0  2  0  0  0  0  0  0  0  0  0
   -0.7025    0.1989    3.5465 C   0  0  0  0  0  0  0  0  0  0  0  0
   -1.5754   -1.0849    3.0119 C   0  0  1  0  0  0  0  0  0  0  0  0
   -0.6815   -1.2734    2.1857 O   0  0  0  0  0  0  0  0  0  0  0  0
   -1.6656   -2.4502    3.7276 N   0  0  0  0  0  0  0  0  0  0  0  0
   -2.2991   -3.6697    3.3723 C   0  0  0  0  0  0  0  0  0  0  0  0
   -3.0602   -4.1632    2.2299 C   0  0  0  0  0  0  0  0  0  0  0  0
   -3.5819   -5.4986    2.2442 C   0  0  0  0  0  0  0  0  0  0  0  0
   -3.3695   -6.3230    3.3370 C   0  0  0  0  0  0  0  0  0  0  0  0
   -2.6556   -5.8673    4.4173 C   0  0  0  0  0  0  0  0  0  0  0  0
   -2.1451   -4.5844    4.4208 C   0  0  0  0  0  0  0  0  0  0  0  0
   -1.4291   -4.0289    5.4168 C   0  0  0  0  0  0  0  0  0  0  0  0
   -1.0244   -4.5586    6.7001 C   0  0  0  0  0  0  0  0  0  0  0  0
   -0.2493   -3.8428    7.5313 C   0  0  0  0  0  0  0  0  0  0  0  0
    0.1739   -2.6082    7.0720 C   0  0  0  0  0  0  0  0  0  0  0  0
    0.9471   -1.8111    7.8777 C   0  0  0  0  0  0  0  0  0  0  0  0
    2.3329   -1.4017    7.8287 C   0  0  0  0  0  0  0  0  0  0  0  0
    2.8736   -0.2102    8.5625 C   0  0  0  0  0  0  0  0  0  0  0  0
    2.2118    0.2866    9.6210 C   0  0  0  0  0  0  0  0  0  0  0  0
    0.8940   -0.1266    9.5282 C   0  0  0  0  0  0  0  0  0  0  0  0
    0.4723   -0.7074    7.6612 C   0  0  0  0  0  0  0  0  0  0  0  0
    0.2569   -0.9529    5.6956 N   0  0  0  0  0  0  0  0  0  0  0  0
   -0.2707   -2.0939    5.8056 C   0  0  0  0  0  0  0  0  0  0  0  0
   -1.0869   -2.7732    4.9495 C   0  0  0  0  0  0  0  0  0  0  0  0
    0.0929   -4.6342    8.7771 C   0  0  0  0  0  0  0  0  0  0  0  0
   -0.2240   -5.9827    8.3249 N   0  0  0  0  0  0  0  0  0  0  0  0
   -1.2232   -5.8046    7.4075 C   0  0  0  0  0  0  0  0  0  0  0  0
   -2.3671   -6.1664    7.6404 O   0  0  0  0  0  0  0  0  0  0  0  0
    2.2073    0.2370    2.4374 C   0  0  0  0  0  0  0  0  0  0  0  0
    2.8558   -1.0338    2.3184 O   0  0  0  0  0  0  0  0  0  0  0  0
    1.5636   -0.0011    4.2707 O   0  0  0  0  0  0  0  0  0  0  0  0
    0.5048    0.7618    0.0187 H   0  0  0  0  0  0  0  0  0  0  0  0
    0.4797   -0.8316   -0.4173 H   0  0  0  0  0  0  0  0  0  0  0  0
    1.7585   -0.2132    0.0270 H   0  0  0  0  0  0  0  0  0  0  0  0
   -1.2095    0.4696    4.4646 H   0  0  0  0  0  0  0  0  0  0  0  0
   -0.6101    1.2216    3.8341 H   0  0  0  0  0  0  0  0  0  0  0  0
   -2.5509   -0.7021    2.6457 H   0  0  0  0  0  0  0  0  0  0  0  0
   -3.2931   -3.6317    1.3275 H   0  0  0  0  0  0  0  0  0  0  0  0
   -4.1587   -5.9362    1.4284 H   0  0  0  0  0  0  0  0  0  0  0  0
   -3.7565   -7.3262    3.3584 H   0  0  0  0  0  0  0  0  0  0  0  0
   -2.5102   -6.5320    5.2345 H   0  0  0  0  0  0  0  0  0  0  0  0
    2.8060   -1.6206    6.9528 H   0  0  0  0  0  0  0  0  0  0  0  0
    3.7537    0.3320    8.2982 H   0  0  0  0  0  0  0  0  0  0  0  0
    2.7529    0.8473   10.4641 H   0  0  0  0  0  0  0  0  0  0  0  0
    0.7653   -0.5065   10.8478 H   0  0  0  0  0  0  0  0  0  0  0  0
    0.0577   -4.6388    9.9034 H   0  0  0  0  0  0  0  0  0  0  0  0
    0.7514   -3.8785    9.1330 H   0  0  0  0  0  0  0  0  0  0  0  0
    0.0335   -6.8537    8.8418 H   0  0  0  0  0  0  0  0  0  0  0  0
    2.2801    0.8108    1.5499 H   0  0  0  0  0  0  0  0  0  0  0  0
    2.7729    1.0065    2.8324 H   0  0  0  0  0  0  0  0  0  0  0  0
    3.0258   -1.3467    3.2437 H   0  0  0  0  0  0  0  0  0  0  0  0
    1.5629    0.7879    4.7868 H   0  0  0  0  0  0  0  0  0  0  0  0
  1 34  1  0  0  0  0
  1 35  1  0  0  0  0
  1 36  1  0  0  0  0
  2  3  1  0  0  0  0
  2  6  1  0  0  0  0
  2 24  1  0  0  0  0
  2  1  1  6  0  0  0
  3  4  1  0  0  0  0
  3 33  1  1  0  0  0
  3 31  1  0  0  0  0
  4  5  1  0  0  0  0
  4 37  1  0  0  0  0
  4 38  1  0  0  0  0
  5  6  1  0  0  0  0
  5  7  1  0  0  0  0
  5 39  1  6  0  0  0
  7  8  1  0  0  0  0
  7 26  1  0  0  0  0
  8  9  2  0  0  0  0
  8 13  1  0  0  0  0
  9 10  1  0  0  0  0
  9 40  1  0  0  0  0
 10 11  2  0  0  0  0
 10 41  1  0  0  0  0
 11 12  1  0  0  0  0
 11 42  1  0  0  0  0
 12 13  2  0  0  0  0
 12 43  1  0  0  0  0
 13 14  1  0  0  0  0
 14 15  2  0  0  0  0
 14 26  1  0  0  0  0
 15 16  1  0  0  0  0
 15 29  1  0  0  0  0
 16 17  2  0  0  0  0
 16 27  1  0  0  0  0
 17 18  1  0  0  0  0
 17 25  1  0  0  0  0
 18 19  2  0  0  0  0
 18 23  1  0  0  0  0
 19 20  1  0  0  0  0
 19 44  1  0  0  0  0
 20 21  2  0  0  0  0
 20 45  1  0  0  0  0
 21 22  1  0  0  0  0
 21 46  1  0  0  0  0
 22 23  2  0  0  0  0
 22 47  1  0  0  0  0
 23 24  1  0  0  0  0
 24 25  1  0  0  0  0
 25 26  2  0  0  0  0
 27 28  1  0  0  0  0
 27 48  1  0  0  0  0
 27 49  1  0  0  0  0
 28 29  1  0  0  0  0
 28 50  1  0  0  0  0
 29 30  2  0  0  0  0
 31 32  1  0  0  0  0
 31 51  1  0  0  0  0
 31 52  1  0  0  0  0
 32 53  1  0  0  0  0
 33 54  1  0  0  0  0
M  END
$$$$

 OpenBabel05152416213D

 61 60  0  0  0  0  0  0  0  0999 V2000
    0.8747    0.4627   -0.0179 C   0  0  0  0  0  0  0  0  0  0  0  0
    0.5250    1.2775   -1.2291 C   0  0  0  0  0  0  0  0  0  0  0  0
    1.0961    0.6421   -2.5132 C   0  0  0  0  0  0  0  0  0  0  0  0
    0.5565   -0.7830   -2.7826 C   0  0  0  0  0  0  0  0  0  0  0  0
   -0.9889   -0.7795   -2.7513 C   0  0  0  0  0  0  0  0  0  0  0  0
   -1.5241    0.2031   -3.8164 C   0  0  0  0  0  0  0  0  0  0  0  0
   -1.0237   -0.2337   -5.2108 C   0  0  0  0  0  0  0  0  0  0  0  0
   -1.5259   -1.6653   -5.5006 C   0  0  0  0  0  0  0  0  0  0  0  0
   -3.0687   -1.6652   -5.4821 C   0  0  0  0  0  0  0  0  0  0  0  0
   -3.5793   -0.6795   -6.5549 C   0  0  0  0  0  0  0  0  0  0  0  0
   -3.0424   -1.1188   -7.9360 C   0  0  0  0  0  0  0  0  0  0  0  0
   -3.5318   -2.5526   -8.2373 C   0  0  0  0  0  0  0  0  0  0  0  0
   -5.0678   -2.5737   -8.2197 C   0  0  0  0  0  0  0  0  0  0  0  0
   -5.5994   -1.5940   -9.2728 C   0  0  0  0  0  0  0  0  0  0  0  0
   -5.1085   -1.9947  -10.6951 C   0  0  0  0  0  0  0  0  0  0  0  0
   -5.6564   -3.3904  -11.0463 C   0  0  0  0  0  0  0  0  0  0  0  0
   -7.1364   -3.4144  -11.0617 N   0  3  0  0  0  0  0  0  0  0  0  0
   -7.7657   -4.6363  -11.0472 C   0  0  0  0  0  0  0  0  0  0  0  0
   -9.1594   -4.7036  -11.1392 C   0  0  0  0  0  0  0  0  0  0  0  0
   -9.9080   -3.5305  -11.2054 C   0  0  0  0  0  0  0  0  0  0  0  0
   -9.2684   -2.3029  -11.1675 C   0  0  0  0  0  0  0  0  0  0  0  0
   -7.8916   -2.2710  -11.1200 C   0  0  0  0  0  0  0  0  0  0  0  0
    1.7128   -1.9405    1.9467 Br  0  5  0  0  0  0  0  0  0  0  0  0
    0.3718   -0.5261   -0.0780 H   0  0  0  0  0  0  0  0  0  0  0  0
    0.5099    0.9936    0.8831 H   0  0  0  0  0  0  0  0  0  0  0  0
    1.9773    0.3415    0.0143 H   0  0  0  0  0  0  0  0  0  0  0  0
   -0.5815    1.3865   -1.2564 H   0  0  0  0  0  0  0  0  0  0  0  0
    0.9400    2.2934   -1.1058 H   0  0  0  0  0  0  0  0  0  0  0  0
    0.8382    1.3241   -3.3468 H   0  0  0  0  0  0  0  0  0  0  0  0
    2.2024    0.6146   -2.4972 H   0  0  0  0  0  0  0  0  0  0  0  0
    0.9568   -1.1423   -3.7536 H   0  0  0  0  0  0  0  0  0  0  0  0
    0.9579   -1.5347   -2.0772 H   0  0  0  0  0  0  0  0  0  0  0  0
   -1.3851   -1.8044   -2.8808 H   0  0  0  0  0  0  0  0  0  0  0  0
   -1.3858   -0.5199   -1.7548 H   0  0  0  0  0  0  0  0  0  0  0  0
   -2.6253    0.2730   -3.7527 H   0  0  0  0  0  0  0  0  0  0  0  0
   -1.2319    1.2481   -3.6205 H   0  0  0  0  0  0  0  0  0  0  0  0
   -1.3243    0.5039   -5.9737 H   0  0  0  0  0  0  0  0  0  0  0  0
    0.0706   -0.1827   -5.3224 H   0  0  0  0  0  0  0  0  0  0  0  0
   -1.0986   -2.0362   -6.4470 H   0  0  0  0  0  0  0  0  0  0  0  0
   -1.1344   -2.4226   -4.8021 H   0  0  0  0  0  0  0  0  0  0  0  0
   -3.4517   -2.6914   -5.6126 H   0  0  0  0  0  0  0  0  0  0  0  0
   -3.4958   -1.4131   -4.4974 H   0  0  0  0  0  0  0  0  0  0  0  0
   -4.6781   -0.6037   -6.5112 H   0  0  0  0  0  0  0  0  0  0  0  0
   -3.3050    0.3694   -6.3555 H   0  0  0  0  0  0  0  0  0  0  0  0
   -3.3305   -0.3843   -8.7058 H   0  0  0  0  0  0  0  0  0  0  0  0
   -1.9438   -1.0708   -8.0175 H   0  0  0  0  0  0  0  0  0  0  0  0
   -3.1087   -2.9111   -9.1887 H   0  0  0  0  0  0  0  0  0  0  0  0
   -3.1426   -3.3059   -7.5314 H   0  0  0  0  0  0  0  0  0  0  0  0
   -5.4493   -3.5976   -8.3597 H   0  0  0  0  0  0  0  0  0  0  0  0
   -5.4951   -2.3229   -7.2313 H   0  0  0  0  0  0  0  0  0  0  0  0
   -6.6896   -1.5753   -9.1362 H   0  0  0  0  0  0  0  0  0  0  0  0
   -5.3285   -0.5402   -9.0727 H   0  0  0  0  0  0  0  0  0  0  0  0
   -5.4102   -1.2560  -11.4592 H   0  0  0  0  0  0  0  0  0  0  0  0
   -4.0049   -1.9741  -10.7811 H   0  0  0  0  0  0  0  0  0  0  0  0
   -5.2696   -3.7280  -12.0259 H   0  0  0  0  0  0  0  0  0  0  0  0
   -5.2531   -4.1407  -10.3334 H   0  0  0  0  0  0  0  0  0  0  0  0
   -7.1934   -5.5520  -10.9707 H   0  0  0  0  0  0  0  0  0  0  0  0
   -9.6583   -5.6619  -11.1639 H   0  0  0  0  0  0  0  0  0  0  0  0
  -10.9824   -3.5573  -11.2875 H   0  0  0  0  0  0  0  0  0  0  0  0
   -9.8169   -1.3725  -11.1933 H   0  0  0  0  0  0  0  0  0  0  0  0
   -7.4671   -1.2778  -11.1345 H   0  0  0  0  0  0  0  0  0  0  0  0
  1  2  1  0  0  0  0
  1 24  1  0  0  0  0
  1 25  1  0  0  0  0
  1 26  1  0  0  0  0
  2  3  1  0  0  0  0
  2 27  1  0  0  0  0
  2 28  1  0  0  0  0
  3  4  1  0  0  0  0
  3 29  1  0  0  0  0
  3 30  1  0  0  0  0
  4  5  1  0  0  0  0
  4 31  1  0  0  0  0
  4 32  1  0  0  0  0
  5  6  1  0  0  0  0
  5 33  1  0  0  0  0
  5 34  1  0  0  0  0
  6  7  1  0  0  0  0
  6 35  1  0  0  0  0
  6 36  1  0  0  0  0
  7  8  1  0  0  0  0
  7 37  1  0  0  0  0
  7 38  1  0  0  0  0
  8  9  1  0  0  0  0
  8 39  1  0  0  0  0
  8 40  1  0  0  0  0
  9 10  1  0  0  0  0
  9 41  1  0  0  0  0
  9 42  1  0  0  0  0
 10 11  1  0  0  0  0
 10 43  1  0  0  0  0
 10 44  1  0  0  0  0
 11 12  1  0  0  0  0
 11 45  1  0  0  0  0
 11 46  1  0  0  0  0
 12 13  1  0  0  0  0
 12 47  1  0  0  0  0
 12 48  1  0  0  0  0
 13 14  1  0  0  0  0
 13 49  1  0  0  0  0
 13 50  1  0  0  0  0
 14 15  1  0  0  0  0
 14 51  1  0  0  0  0
 14 52  1  0  0  0  0
 15 16  1  0  0  0  0
 15 53  1  0  0  0  0
 15 54  1  0  0  0  0
 16 17  1  0  0  0  0
 16 55  1  0  0  0  0
 16 56  1  0  0  0  0
 17 18  2  0  0  0  0
 17 22  1  0  0  0  0
 18 19  1  0  0  0  0
 18 57  1  0  0  0  0
 19 20  2  0  0  0  0
 19 58  1  0  0  0  0
 20 21  1  0  0  0  0
 20 59  1  0  0  0  0
 21 22  2  0  0  0  0
 21 60  1  0  0  0  0
 22 61  1  0  0  0  0
M  CHG  2  17   1  23  -1
M  END
$$$$

 OpenBabel05152416213D

 62 61  0  0  0  0  0  0  0  0999 V2000
    0.9338    0.3703    0.0209 C   0  0  0  0  0  0  0  0  0  0  0  0
    0.5531    1.5242   -0.8658 C   0  0  0  0  0  0  0  0  0  0  0  0
    1.1180    1.2789   -2.2771 C   0  0  0  0  0  0  0  0  0  0  0  0
    0.5747   -0.0309   -2.9013 C   0  0  0  0  0  0  0  0  0  0  0  0
   -0.9706   -0.0276   -2.8934 C   0  0  0  0  0  0  0  0  0  0  0  0
   -1.4872    1.1944   -3.6773 C   0  0  0  0  0  0  0  0  0  0  0  0
   -0.9725    1.1227   -5.1298 C   0  0  0  0  0  0  0  0  0  0  0  0
   -1.4824   -0.1792   -5.7856 C   0  0  0  0  0  0  0  0  0  0  0  0
   -3.0261   -0.1822   -5.7690 C   0  0  0  0  0  0  0  0  0  0  0  0
   -3.5415    1.0511   -6.5418 C   0  0  0  0  0  0  0  0  0  0  0  0
   -3.0173    0.9960   -7.9930 C   0  0  0  0  0  0  0  0  0  0  0  0
   -3.5122   -0.3022   -8.6661 C   0  0  0  0  0  0  0  0  0  0  0  0
   -5.0531   -0.3293   -8.6662 C   0  0  0  0  0  0  0  0  0  0  0  0
   -5.5963    0.8882   -9.4329 C   0  0  0  0  0  0  0  0  0  0  0  0
   -5.0816    0.8866  -10.8901 C   0  0  0  0  0  0  0  0  0  0  0  0
   -5.5855   -0.3660  -11.6220 C   0  0  0  0  0  0  0  0  0  0  0  0
   -7.0527   -0.3878  -11.5989 N   0  0  0  0  0  0  0  0  0  0  0  0
   -7.8756    0.6796  -11.6076 C   0  0  0  0  0  0  0  0  0  0  0  0
   -9.1681    0.2349  -11.5525 C   0  0  0  0  0  0  0  0  0  0  0  0
   -9.1430   -1.1034  -11.5234 N   0  3  0  0  0  0  0  0  0  0  0  0
   -7.8452   -1.4773  -11.5360 C   0  0  0  0  0  0  0  0  0  0  0  0
  -10.3030   -1.9792  -11.4955 C   0  0  0  0  0  0  0  0  0  0  0  0
    1.8746   -2.2737    1.2779 Cl  0  5  0  0  0  0  0  0  0  0  0  0
    0.4530   -0.5606   -0.3454 H   0  0  0  0  0  0  0  0  0  0  0  0
    0.5774    0.5394    1.0502 H   0  0  0  0  0  0  0  0  0  0  0  0
    2.0404    0.2731   -0.0089 H   0  0  0  0  0  0  0  0  0  0  0  0
   -0.5540    1.6350   -0.8520 H   0  0  0  0  0  0  0  0  0  0  0  0
    0.9658    2.4601   -0.4469 H   0  0  0  0  0  0  0  0  0  0  0  0
    0.8778    2.1603   -2.9060 H   0  0  0  0  0  0  0  0  0  0  0  0
    2.2235    1.2325   -2.2499 H   0  0  0  0  0  0  0  0  0  0  0  0
    0.9963   -0.1590   -3.9183 H   0  0  0  0  0  0  0  0  0  0  0  0
    0.9503   -0.9323   -2.3843 H   0  0  0  0  0  0  0  0  0  0  0  0
   -1.3594   -0.9870   -3.2843 H   0  0  0  0  0  0  0  0  0  0  0  0
   -1.3897   -0.0207   -1.8726 H   0  0  0  0  0  0  0  0  0  0  0  0
   -2.5884    1.2532   -3.6087 H   0  0  0  0  0  0  0  0  0  0  0  0
   -1.1906    2.1505   -3.2147 H   0  0  0  0  0  0  0  0  0  0  0  0
   -1.2634    2.0338   -5.6801 H   0  0  0  0  0  0  0  0  0  0  0  0
    0.1254    1.1825   -5.2048 H   0  0  0  0  0  0  0  0  0  0  0  0
   -1.0561   -0.2873   -6.7972 H   0  0  0  0  0  0  0  0  0  0  0  0
   -1.0948   -1.0930   -5.3053 H   0  0  0  0  0  0  0  0  0  0  0  0
   -3.4095   -1.1373   -6.1654 H   0  0  0  0  0  0  0  0  0  0  0  0
   -3.4516   -0.1991   -4.7514 H   0  0  0  0  0  0  0  0  0  0  0  0
   -4.6404    1.1093   -6.4775 H   0  0  0  0  0  0  0  0  0  0  0  0
   -3.2590    2.0086   -6.0717 H   0  0  0  0  0  0  0  0  0  0  0  0
   -3.3129    1.9074   -8.5387 H   0  0  0  0  0  0  0  0  0  0  0  0
   -1.9170    1.0599   -8.0593 H   0  0  0  0  0  0  0  0  0  0  0  0
   -3.0840   -0.3939   -9.6773 H   0  0  0  0  0  0  0  0  0  0  0  0
   -3.1209   -1.2149   -8.1835 H   0  0  0  0  0  0  0  0  0  0  0  0
   -5.4179   -1.2824   -9.0835 H   0  0  0  0  0  0  0  0  0  0  0  0
   -5.4807   -0.3472   -7.6458 H   0  0  0  0  0  0  0  0  0  0  0  0
   -6.6984    0.8740   -9.3719 H   0  0  0  0  0  0  0  0  0  0  0  0
   -5.3299    1.8478   -8.9479 H   0  0  0  0  0  0  0  0  0  0  0  0
   -5.4241    1.7976  -11.4124 H   0  0  0  0  0  0  0  0  0  0  0  0
   -3.9785    0.9568  -10.9553 H   0  0  0  0  0  0  0  0  0  0  0  0
   -5.2247   -0.3706  -12.6655 H   0  0  0  0  0  0  0  0  0  0  0  0
   -5.1771   -1.2998  -11.1762 H   0  0  0  0  0  0  0  0  0  0  0  0
   -7.5762    1.7179  -11.6270 H   0  0  0  0  0  0  0  0  0  0  0  0
  -10.0528    0.8551  -11.5369 H   0  0  0  0  0  0  0  0  0  0  0  0
   -7.4941   -2.4988  -11.5083 H   0  0  0  0  0  0  0  0  0  0  0  0
  -10.2892   -2.6234  -12.3980 H   0  0  0  0  0  0  0  0  0  0  0  0
  -10.2828   -2.6020  -10.5800 H   0  0  0  0  0  0  0  0  0  0  0  0
  -11.2323   -1.3690  -11.5055 H   0  0  0  0  0  0  0  0  0  0  0  0
  1  2  1  0  0  0  0
  1 24  1  0  0  0  0
  1 25  1  0  0  0  0
  1 26  1  0  0  0  0
  2  3  1  0  0  0  0
  2 27  1  0  0  0  0
  2 28  1  0  0  0  0
  3  4  1  0  0  0  0
  3 29  1  0  0  0  0
  3 30  1  0  0  0  0
  4  5  1  0  0  0  0
  4 31  1  0  0  0  0
  4 32  1  0  0  0  0
  5  6  1  0  0  0  0
  5 33  1  0  0  0  0
  5 34  1  0  0  0  0
  6  7  1  0  0  0  0
  6 35  1  0  0  0  0
  6 36  1  0  0  0  0
  7  8  1  0  0  0  0
  7 37  1  0  0  0  0
  7 38  1  0  0  0  0
  8  9  1  0  0  0  0
  8 39  1  0  0  0  0
  8 40  1  0  0  0  0
  9 10  1  0  0  0  0
  9 41  1  0  0  0  0
  9 42  1  0  0  0  0
 10 11  1  0  0  0  0
 10 43  1  0  0  0  0
 10 44  1  0  0  0  0
 11 12  1  0  0  0  0
 11 45  1  0  0  0  0
 11 46  1  0  0  0  0
 12 13  1  0  0  0  0
 12 47  1  0  0  0  0
 12 48  1  0  0  0  0
 13 14  1  0  0  0  0
 13 49  1  0  0  0  0
 13 50  1  0  0  0  0
 14 15  1  0  0  0  0
 14 51  1  0  0  0  0
 14 52  1  0  0  0  0
 15 16  1  0  0  0  0
 15 53  1  0  0  0  0
 15 54  1  0  0  0  0
 16 17  1  0  0  0  0
 16 55  1  0  0  0  0
 16 56  1  0  0  0  0
 17 18  1  0  0  0  0
 17 21  1  0  0  0  0
 18 19  2  0  0  0  0
 18 57  1  0  0  0  0
 19 20  1  0  0  0  0
 19 58  1  0  0  0  0
 20 21  2  0  0  0  0
 20 22  1  0  0  0  0
 21 59  1  0  0  0  0
 22 60  1  0  0  0  0
 22 61  1  0  0  0  0
 22 62  1  0  0  0  0
M  CHG  2  20   1  23  -1
M  END
$$$$

 OpenBabel05152416213D

 44 45  0  0  0  0  0  0  0  0999 V2000
    1.6039    1.7163    0.2702 C   0  0  0  0  0  0  0  0  0  0  0  0
   -0.3121    1.6191    0.1276 C   0  0  0  0  0  0  0  0  0  0  0  0
   -1.2535   -0.1162    0.1273 C   0  0  0  0  0  0  0  0  0  0  0  0
   -0.2025   -1.8954    0.1180 C   0  0  0  0  0  0  0  0  0  0  0  0
    1.7989   -1.8939    0.1355 C   0  0  0  0  0  0  0  0  0  0  0  0
    2.7908   -0.1882    0.2780 C   0  0  0  0  0  0  0  0  0  0  0  0
    4.2935   -0.4626    0.2626 C   0  0  0  0  0  0  0  0  0  0  0  0
    4.5099   -0.9380    1.5498 O   0  0  0  0  0  0  0  0  0  0  0  0
    3.9688    0.0301    2.5178 C   0  0  0  0  0  0  0  0  0  0  0  0
    4.5395    1.4943    2.2986 C   0  0  0  0  0  0  0  0  0  0  0  0
    4.2976    2.3442    1.0093 N   0  0  0  0  0  0  0  0  0  0  0  0
    3.9950    2.0966   -0.2903 C   0  0  0  0  0  0  0  0  0  0  0  0
    3.6782    3.0945   -1.0204 C   0  0  0  0  0  0  0  0  0  0  0  0
    3.8802    4.1611   -0.2571 N   0  0  0  0  0  0  0  0  0  0  0  0
    4.3048    3.6717    0.9565 C   0  0  0  0  0  0  0  0  0  0  0  0
    2.3940    0.0612    2.7821 C   0  0  0  0  0  0  0  0  0  0  0  0
    1.5851    1.2755    2.8564 C   0  0  0  0  0  0  0  0  0  0  0  0
    0.1976    1.1995    2.8203 C   0  0  0  0  0  0  0  0  0  0  0  0
   -0.4693   -0.0185    2.8401 C   0  0  0  0  0  0  0  0  0  0  0  0
    0.2702   -1.2091    2.7715 C   0  0  0  0  0  0  0  0  0  0  0  0
    1.6837   -1.1758    2.7418 C   0  0  0  0  0  0  0  0  0  0  0  0
   -2.2367   -0.0220    2.8066 Cl  0  0  0  0  0  0  0  0  0  0  0  0
    2.0487    3.0058    2.8092 Cl  0  0  0  0  0  0  0  0  0  0  0  0
   -2.8818   -0.0183   -0.2356 Cl  0  0  0  0  0  0  0  0  0  0  0  0
    0.8860   -0.0642   -1.0942 N   0  3  0  0  0  0  0  0  0  0  0  0
    0.7979   -0.1068    0.2140 O   0  0  0  0  0  0  0  0  0  0  0  0
    0.0389   -0.4841   -1.9609 O   0  0  0  0  0  0  0  0  0  0  0  0
    1.8857    0.4680   -1.7562 O   0  5  0  0  0  0  0  0  0  0  0  0
    1.7695    2.8053    0.2139 H   0  0  0  0  0  0  0  0  0  0  0  0
   -0.7553    2.5811   -0.0520 H   0  0  0  0  0  0  0  0  0  0  0  0
   -0.6383   -2.7997   -0.0282 H   0  0  0  0  0  0  0  0  0  0  0  0
    2.3826   -2.7853    0.0039 H   0  0  0  0  0  0  0  0  0  0  0  0
    4.4407   -0.8421   -0.8014 H   0  0  0  0  0  0  0  0  0  0  0  0
    5.1626    0.2315    0.1312 H   0  0  0  0  0  0  0  0  0  0  0  0
    4.3024   -0.4272    3.4452 H   0  0  0  0  0  0  0  0  0  0  0  0
    4.1814    1.9727    3.2450 H   0  0  0  0  0  0  0  0  0  0  0  0
    5.6053    1.4407    2.4445 H   0  0  0  0  0  0  0  0  0  0  0  0
    3.7513    1.3323   -0.8386 H   0  0  0  0  0  0  0  0  0  0  0  0
    3.1201    2.8613   -1.9682 H   0  0  0  0  0  0  0  0  0  0  0  0
    4.5165    4.2656    1.7886 H   0  0  0  0  0  0  0  0  0  0  0  0
   -0.3571    2.1368    2.6519 H   0  0  0  0  0  0  0  0  0  0  0  0
   -0.2606   -2.1512    2.5868 H   0  0  0  0  0  0  0  0  0  0  0  0
    2.2203   -2.1108    2.5276 H   0  0  0  0  0  0  0  0  0  0  0  0
   -0.8047   -0.8704   -1.8867 H   0  0  0  0  0  0  0  0  0  0  0  0
  1  2  2  0  0  0  0
  1  6  1  0  0  0  0
  1 29  1  0  0  0  0
  2  3  1  0  0  0  0
  2 30  1  0  0  0  0
  3  4  2  0  0  0  0
  3 24  1  0  0  0  0
  4  5  1  0  0  0  0
  4 31  1  0  0  0  0
  5  6  2  0  0  0  0
  5 32  1  0  0  0  0
  6  7  1  0  0  0  0
  7  8  1  0  0  0  0
  7 33  1  0  0  0  0
  7 34  1  0  0  0  0
  8  9  1  0  0  0  0
  9 10  1  0  0  0  0
  9 16  1  0  0  0  0
  9 35  1  0  0  0  0
 10 11  1  0  0  0  0
 10 36  1  0  0  0  0
 10 37  1  0  0  0  0
 11 12  1  0  0  0  0
 11 15  1  0  0  0  0
 12 13  2  0  0  0  0
 12 38  1  0  0  0  0
 13 14  1  0  0  0  0
 13 39  1  0  0  0  0
 14 15  2  0  0  0  0
 15 40  1  0  0  0  0
 16 17  2  0  0  0  0
 16 21  1  0  0  0  0
 17 18  1  0  0  0  0
 17 23  1  0  0  0  0
 18 19  2  0  0  0  0
 18 41  1  0  0  0  0
 19 20  1  0  0  0  0
 19 22  1  0  0  0  0
 20 21  2  0  0  0  0
 20 42  1  0  0  0  0
 21 43  1  0  0  0  0
 25 26  2  0  0  0  0
 25 27  1  0  0  0  0
 25 28  1  0  0  0  0
 27 44  1  0  0  0  0
M  CHG  2  25   1  28  -1
M  END
$$$$

 OpenBabel05152416213D

 61 60  0  0  0  0  0  0  0  0999 V2000
    0.6272   -0.5342   -0.0343 C   0  0  0  0  0  0  0  0  0  0  0  0
    0.3553   -0.5921    1.4619 C   0  0  0  0  0  0  0  0  0  0  0  0
    0.9928    0.5960    2.2158 C   0  0  0  0  0  0  0  0  0  0  0  0
    0.4506    1.9645    1.7475 C   0  0  0  0  0  0  0  0  0  0  0  0
   -1.0855    2.0074    1.8175 C   0  0  0  0  0  0  0  0  0  0  0  0
   -1.5661    1.7350    3.2573 C   0  0  0  0  0  0  0  0  0  0  0  0
   -1.0369    2.8307    4.2043 C   0  0  0  0  0  0  0  0  0  0  0  0
   -1.5599    4.2076    3.7425 C   0  0  0  0  0  0  0  0  0  0  0  0
   -3.1042    4.1990    3.7491 C   0  0  0  0  0  0  0  0  0  0  0  0
   -3.5979    3.8952    5.1780 C   0  0  0  0  0  0  0  0  0  0  0  0
   -3.0371    4.9736    6.1391 C   0  0  0  0  0  0  0  0  0  0  0  0
   -3.5034    6.3802    5.6806 C   0  0  0  0  0  0  0  0  0  0  0  0
   -5.0229    6.4049    5.6158 C   0  0  0  0  0  0  0  0  0  0  0  0
   -5.5758    6.0189    6.9725 C   0  0  0  0  0  0  0  0  0  0  0  0
   -5.2020    7.0685    8.0806 C   0  0  0  0  0  0  0  0  0  0  0  0
   -5.7689    8.4665    7.8000 C   0  0  0  0  0  0  0  0  0  0  0  0
   -7.2501    8.4868    7.7495 N   0  3  0  0  0  0  0  0  0  0  0  0
   -8.0171    7.3387    7.8960 C   0  0  0  0  0  0  0  0  0  0  0  0
   -9.3582    7.3296    7.6048 C   0  0  0  0  0  0  0  0  0  0  0  0
   -9.9955    8.5181    7.3396 C   0  0  0  0  0  0  0  0  0  0  0  0
   -9.2688    9.7132    7.3660 C   0  0  0  0  0  0  0  0  0  0  0  0
   -7.8773    9.6641    7.5277 C   0  0  0  0  0  0  0  0  0  0  0  0
    3.3057    2.5615   -0.5903 Br  0  5  0  0  0  0  0  0  0  0  0  0
    0.2211    0.3986   -0.4780 H   0  0  0  0  0  0  0  0  0  0  0  0
    0.1264   -1.3843   -0.5394 H   0  0  0  0  0  0  0  0  0  0  0  0
    1.7213   -0.5931   -0.2010 H   0  0  0  0  0  0  0  0  0  0  0  0
   -0.7435   -0.6280    1.6225 H   0  0  0  0  0  0  0  0  0  0  0  0
    0.7569   -1.5396    1.8686 H   0  0  0  0  0  0  0  0  0  0  0  0
    0.7964    0.4598    3.3003 H   0  0  0  0  0  0  0  0  0  0  0  0
    2.0949    0.5897    2.1167 H   0  0  0  0  0  0  0  0  0  0  0  0
    0.9119    2.7714    2.3567 H   0  0  0  0  0  0  0  0  0  0  0  0
    0.7641    2.1916    0.7155 H   0  0  0  0  0  0  0  0  0  0  0  0
   -1.4552    2.9718    1.4197 H   0  0  0  0  0  0  0  0  0  0  0  0
   -1.5375    1.2817    1.1211 H   0  0  0  0  0  0  0  0  0  0  0  0
   -2.6680    1.6534    3.2744 H   0  0  0  0  0  0  0  0  0  0  0  0
   -1.2646    0.7400    3.6247 H   0  0  0  0  0  0  0  0  0  0  0  0
   -1.3192    2.5927    5.2468 H   0  0  0  0  0  0  0  0  0  0  0  0
    0.0638    2.8462    4.2697 H   0  0  0  0  0  0  0  0  0  0  0  0
   -1.1296    5.0064    4.3710 H   0  0  0  0  0  0  0  0  0  0  0  0
   -1.1844    4.5045    2.7511 H   0  0  0  0  0  0  0  0  0  0  0  0
   -3.4918    5.1542    3.3543 H   0  0  0  0  0  0  0  0  0  0  0  0
   -3.5416    3.4843    3.0312 H   0  0  0  0  0  0  0  0  0  0  0  0
   -4.7014    3.8172    5.1905 H   0  0  0  0  0  0  0  0  0  0  0  0
   -3.3226    2.8866    5.5316 H   0  0  0  0  0  0  0  0  0  0  0  0
   -3.3168    4.7293    7.1774 H   0  0  0  0  0  0  0  0  0  0  0  0
   -1.9415    4.9584    6.2322 H   0  0  0  0  0  0  0  0  0  0  0  0
   -3.1099    7.1590    6.3520 H   0  0  0  0  0  0  0  0  0  0  0  0
   -3.1087    6.6747    4.6924 H   0  0  0  0  0  0  0  0  0  0  0  0
   -5.4211    7.3752    5.2720 H   0  0  0  0  0  0  0  0  0  0  0  0
   -5.4215    5.7075    4.8490 H   0  0  0  0  0  0  0  0  0  0  0  0
   -6.6087    5.8075    6.6930 H   0  0  0  0  0  0  0  0  0  0  0  0
   -5.2985    5.0189    7.3519 H   0  0  0  0  0  0  0  0  0  0  0  0
   -5.5711    6.7568    9.0764 H   0  0  0  0  0  0  0  0  0  0  0  0
   -4.1000    7.1341    8.2066 H   0  0  0  0  0  0  0  0  0  0  0  0
   -5.3917    9.1840    8.5575 H   0  0  0  0  0  0  0  0  0  0  0  0
   -5.3604    8.8412    6.8274 H   0  0  0  0  0  0  0  0  0  0  0  0
   -7.6375    6.3971    8.2098 H   0  0  0  0  0  0  0  0  0  0  0  0
   -9.8847    6.3798    7.6044 H   0  0  0  0  0  0  0  0  0  0  0  0
  -11.0548    8.5050    7.1466 H   0  0  0  0  0  0  0  0  0  0  0  0
   -9.7742   10.6516    7.2327 H   0  0  0  0  0  0  0  0  0  0  0  0
   -7.3059   10.5897    7.4819 H   0  0  0  0  0  0  0  0  0  0  0  0
  1  2  1  0  0  0  0
  1 24  1  0  0  0  0
  1 25  1  0  0  0  0
  1 26  1  0  0  0  0
  2  3  1  0  0  0  0
  2 27  1  0  0  0  0
  2 28  1  0  0  0  0
  3  4  1  0  0  0  0
  3 29  1  0  0  0  0
  3 30  1  0  0  0  0
  4  5  1  0  0  0  0
  4 31  1  0  0  0  0
  4 32  1  0  0  0  0
  5  6  1  0  0  0  0
  5 33  1  0  0  0  0
  5 34  1  0  0  0  0
  6  7  1  0  0  0  0
  6 35  1  0  0  0  0
  6 36  1  0  0  0  0
  7  8  1  0  0  0  0
  7 37  1  0  0  0  0
  7 38  1  0  0  0  0
  8  9  1  0  0  0  0
  8 39  1  0  0  0  0
  8 40  1  0  0  0  0
  9 10  1  0  0  0  0
  9 41  1  0  0  0  0
  9 42  1  0  0  0  0
 10 11  1  0  0  0  0
 10 43  1  0  0  0  0
 10 44  1  0  0  0  0
 11 12  1  0  0  0  0
 11 45  1  0  0  0  0
 11 46  1  0  0  0  0
 12 13  1  0  0  0  0
 12 47  1  0  0  0  0
 12 48  1  0  0  0  0
 13 14  1  0  0  0  0
 13 49  1  0  0  0  0
 13 50  1  0  0  0  0
 14 15  1  0  0  0  0
 14 51  1  0  0  0  0
 14 52  1  0  0  0  0
 15 16  1  0  0  0  0
 15 53  1  0  0  0  0
 15 54  1  0  0  0  0
 16 17  1  0  0  0  0
 16 55  1  0  0  0  0
 16 56  1  0  0  0  0
 17 18  2  0  0  0  0
 17 22  1  0  0  0  0
 18 19  1  0  0  0  0
 18 57  1  0  0  0  0
 19 20  2  0  0  0  0
 19 58  1  0  0  0  0
 20 21  1  0  0  0  0
 20 59  1  0  0  0  0
 21 22  2  0  0  0  0
 21 60  1  0  0  0  0
 22 61  1  0  0  0  0
M  CHG  2  17   1  23  -1
M  END
$$$$

 OpenBabel05152416213D

  7  6  0  0  0  0  0  0  0  0999 V2000
    0.9416    0.0341    0.0719 C   0  0  0  0  0  0  0  0  0  0  0  0
    0.4415    1.3448   -0.4431 C   0  0  0  0  0  0  0  0  0  0  0  0
   -0.2605    1.3916   -1.4403 O   0  0  0  0  0  0  0  0  0  0  0  0
    0.5843   -0.8016   -0.5671 H   0  0  0  0  0  0  0  0  0  0  0  0
    0.5742   -0.1203    1.1076 H   0  0  0  0  0  0  0  0  0  0  0  0
    2.0513    0.0376    0.0751 H   0  0  0  0  0  0  0  0  0  0  0  0
    0.7040    2.2625    0.0728 H   0  0  0  0  0  0  0  0  0  0  0  0
  1  2  1  0  0  0  0
  1  4  1  0  0  0  0
  1  5  1  0  0  0  0
  1  6  1  0  0  0  0
  2  3  2  0  0  0  0
  2  7  1  0  0  0  0
M  END
$$$$

 OpenBabel05152416213D

 70 69  0  0  0  0  0  0  0  0999 V2000
   -0.2468   -0.0662   -0.4797 C   0  0  0  0  0  0  0  0  0  0  0  0
   -0.0721    1.1906   -1.3781 C   0  0  0  0  0  0  0  0  0  0  0  0
    0.7953    0.7686   -2.6291 C   0  0  0  0  0  0  0  0  0  0  0  0
    0.3818   -0.6627   -3.1096 C   0  0  0  0  0  0  0  0  0  0  0  0
   -1.1765   -0.7139   -3.0746 C   0  0  0  0  0  0  0  0  0  0  0  0
   -1.6674    0.3856   -4.0064 C   0  0  0  0  0  0  0  0  0  0  0  0
   -1.1098    0.0465   -5.3910 C   0  0  0  0  0  0  0  0  0  0  0  0
   -1.5812   -1.3875   -5.7444 C   0  0  0  0  0  0  0  0  0  0  0  0
   -3.1249   -1.4093   -5.6836 C   0  0  0  0  0  0  0  0  0  0  0  0
   -3.6542   -0.3441   -6.6649 C   0  0  0  0  0  0  0  0  0  0  0  0
   -3.1283   -0.6632   -8.0806 C   0  0  0  0  0  0  0  0  0  0  0  0
   -3.6100   -2.0603   -8.5054 C   0  0  0  0  0  0  0  0  0  0  0  0
   -5.1454   -2.1156   -8.4751 C   0  0  0  0  0  0  0  0  0  0  0  0
   -5.7291   -1.1065   -9.4718 C   0  0  0  0  0  0  0  0  0  0  0  0
   -5.2416   -1.4066  -10.8067 N   0  0  0  0  0  0  0  0  0  0  0  0
   -5.2076   -2.6457  -11.3740 C   0  0  0  0  0  0  0  0  0  0  0  0
   -4.6971   -2.5317  -12.6313 C   0  0  0  0  0  0  0  0  0  0  0  0
   -4.4197   -1.2222  -12.8603 N   0  3  0  0  0  0  0  0  0  0  0  0
   -4.7362   -0.5745  -11.7281 C   0  0  0  0  0  0  0  0  0  0  0  0
   -3.9144   -0.6681  -14.0951 C   0  0  0  0  0  0  0  0  0  0  0  0
    2.0389    0.2506    1.1767 C   0  0  0  0  0  0  0  0  0  0  0  0
    1.6163    0.9742    2.2563 F   0  0  0  0  0  0  0  0  0  0  0  0
    1.8457    1.0580    0.1195 F   0  0  0  0  0  0  0  0  0  0  0  0
    1.5586   -1.0584    1.2398 F   0  0  0  0  0  0  0  0  0  0  0  0
    3.6527    0.0853    0.7233 S   0  0  0  0  0  0  0  0  0  0  0  0
    4.3565    1.4441    0.8398 O   0  0  0  0  0  0  0  0  0  0  0  0
    4.3787   -0.9137    1.6149 O   0  0  0  0  0  0  0  0  0  0  0  0
    3.7001   -0.4513   -0.9949 N   0  5  0  0  0  0  0  0  0  0  0  0
    5.3648   -0.5520   -1.5335 S   0  0  0  0  0  0  0  0  0  0  0  0
    5.9421    0.8425   -1.2627 O   0  0  0  0  0  0  0  0  0  0  0  0
    6.0287   -1.3904   -0.4374 O   0  0  0  0  0  0  0  0  0  0  0  0
    5.8449   -1.1690   -3.1708 C   0  0  0  0  0  0  0  0  0  0  0  0
    5.3676   -2.4519   -3.3577 F   0  0  0  0  0  0  0  0  0  0  0  0
    5.3642   -0.3374   -4.1645 F   0  0  0  0  0  0  0  0  0  0  0  0
    7.2260   -1.1862   -3.2206 F   0  0  0  0  0  0  0  0  0  0  0  0
    0.3334   -0.9935   -0.6366 H   0  0  0  0  0  0  0  0  0  0  0  0
   -0.6179    0.0030    0.5506 H   0  0  0  0  0  0  0  0  0  0  0  0
    0.6905   -0.6203   -0.6410 H   0  0  0  0  0  0  0  0  0  0  0  0
   -1.1184    1.5167   -1.5156 H   0  0  0  0  0  0  0  0  0  0  0  0
    0.3628    2.1237   -0.9512 H   0  0  0  0  0  0  0  0  0  0  0  0
    0.6969    1.5490   -3.4182 H   0  0  0  0  0  0  0  0  0  0  0  0
    1.8862    0.7575   -2.4305 H   0  0  0  0  0  0  0  0  0  0  0  0
    0.8962   -0.9376   -4.0498 H   0  0  0  0  0  0  0  0  0  0  0  0
    0.7763   -1.5196   -2.5350 H   0  0  0  0  0  0  0  0  0  0  0  0
   -1.5356   -1.7439   -3.2158 H   0  0  0  0  0  0  0  0  0  0  0  0
   -1.7206   -0.5523   -2.1361 H   0  0  0  0  0  0  0  0  0  0  0  0
   -2.7633    0.4762   -3.9256 H   0  0  0  0  0  0  0  0  0  0  0  0
   -1.3729    1.4055   -3.7052 H   0  0  0  0  0  0  0  0  0  0  0  0
   -1.3874    0.8346   -6.0998 H   0  0  0  0  0  0  0  0  0  0  0  0
   -0.0153    0.1242   -5.4683 H   0  0  0  0  0  0  0  0  0  0  0  0
   -1.1475   -1.7050   -6.6985 H   0  0  0  0  0  0  0  0  0  0  0  0
   -1.1661   -2.1882   -5.1059 H   0  0  0  0  0  0  0  0  0  0  0  0
   -3.5020   -2.4252   -5.8732 H   0  0  0  0  0  0  0  0  0  0  0  0
   -3.5400   -1.2327   -4.6725 H   0  0  0  0  0  0  0  0  0  0  0  0
   -4.7496   -0.2769   -6.6027 H   0  0  0  0  0  0  0  0  0  0  0  0
   -3.3779    0.6879   -6.3846 H   0  0  0  0  0  0  0  0  0  0  0  0
   -3.4364    0.1232   -8.7846 H   0  0  0  0  0  0  0  0  0  0  0  0
   -2.0257   -0.6115   -8.1586 H   0  0  0  0  0  0  0  0  0  0  0  0
   -3.2114   -2.2987   -9.5078 H   0  0  0  0  0  0  0  0  0  0  0  0
   -3.2006   -2.8651   -7.8605 H   0  0  0  0  0  0  0  0  0  0  0  0
   -5.4776   -3.1386   -8.7253 H   0  0  0  0  0  0  0  0  0  0  0  0
   -5.5676   -1.9502   -7.4653 H   0  0  0  0  0  0  0  0  0  0  0  0
   -6.8293   -1.1875   -9.4446 H   0  0  0  0  0  0  0  0  0  0  0  0
   -5.4981   -0.0471   -9.2028 H   0  0  0  0  0  0  0  0  0  0  0  0
   -5.5199   -3.5585  -10.8915 H   0  0  0  0  0  0  0  0  0  0  0  0
   -4.5461   -3.3344  -13.3365 H   0  0  0  0  0  0  0  0  0  0  0  0
   -4.6227    0.5050  -11.5883 H   0  0  0  0  0  0  0  0  0  0  0  0
   -4.6520    0.0654  -14.4882 H   0  0  0  0  0  0  0  0  0  0  0  0
   -2.9424   -0.1643  -13.9162 H   0  0  0  0  0  0  0  0  0  0  0  0
   -3.7801   -1.4703  -14.8520 H   0  0  0  0  0  0  0  0  0  0  0  0
  1  2  1  0  0  0  0
  1 36  1  0  0  0  0
  1 37  1  0  0  0  0
  1 38  1  0  0  0  0
  2  3  1  0  0  0  0
  2 39  1  0  0  0  0
  2 40  1  0  0  0  0
  3  4  1  0  0  0  0
  3 41  1  0  0  0  0
  3 42  1  0  0  0  0
  4  5  1  0  0  0  0
  4 43  1  0  0  0  0
  4 44  1  0  0  0  0
  5  6  1  0  0  0  0
  5 45  1  0  0  0  0
  5 46  1  0  0  0  0
  6  7  1  0  0  0  0
  6 47  1  0  0  0  0
  6 48  1  0  0  0  0
  7  8  1  0  0  0  0
  7 49  1  0  0  0  0
  7 50  1  0  0  0  0
  8  9  1  0  0  0  0
  8 51  1  0  0  0  0
  8 52  1  0  0  0  0
  9 10  1  0  0  0  0
  9 53  1  0  0  0  0
  9 54  1  0  0  0  0
 10 11  1  0  0  0  0
 10 55  1  0  0  0  0
 10 56  1  0  0  0  0
 11 12  1  0  0  0  0
 11 57  1  0  0  0  0
 11 58  1  0  0  0  0
 12 13  1  0  0  0  0
 12 59  1  0  0  0  0
 12 60  1  0  0  0  0
 13 14  1  0  0  0  0
 13 61  1  0  0  0  0
 13 62  1  0  0  0  0
 14 15  1  0  0  0  0
 14 63  1  0  0  0  0
 14 64  1  0  0  0  0
 15 16  1  0  0  0  0
 15 19  1  0  0  0  0
 16 17  2  0  0  0  0
 16 65  1  0  0  0  0
 17 18  1  0  0  0  0
 17 66  1  0  0  0  0
 18 19  2  0  0  0  0
 18 20  1  0  0  0  0
 19 67  1  0  0  0  0
 20 68  1  0  0  0  0
 20 69  1  0  0  0  0
 20 70  1  0  0  0  0
 21 22  1  0  0  0  0
 21 23  1  0  0  0  0
 21 24  1  0  0  0  0
 21 25  1  0  0  0  0
 25 26  2  0  0  0  0
 25 27  2  0  0  0  0
 25 28  1  0  0  0  0
 28 29  1  0  0  0  0
 29 30  2  0  0  0  0
 29 31  2  0  0  0  0
 29 32  1  0  0  0  0
 32 33  1  0  0  0  0
 32 34  1  0  0  0  0
 32 35  1  0  0  0  0
M  CHG  2  18   1  28  -1
M  END
$$$$

 OpenBabel05152416213D

 54 53  0  0  0  0  0  0  0  0999 V2000
    1.9233    0.8522   -0.2366 B   0  5  0  0  0  0  0  0  0  0  0  0
    0.1526   -1.6131   -0.0413 F   0  0  0  0  0  0  0  0  0  0  0  0
    1.4838    1.5032    1.4723 F   0  0  0  0  0  0  0  0  0  0  0  0
    1.0665    1.6101   -1.3324 F   0  0  0  0  0  0  0  0  0  0  0  0
    3.2793    0.3944   -0.1669 F   0  0  0  0  0  0  0  0  0  0  0  0
   -0.0834    0.2046    0.5482 C   0  0  0  0  0  0  0  0  0  0  0  0
    0.5687   -0.6599   -1.6799 C   0  0  0  0  0  0  0  0  0  0  0  0
    1.3370   -2.5671   -1.3606 C   0  0  0  0  0  0  0  0  0  0  0  0
    0.7438   -3.4863    0.2793 C   0  0  0  0  0  0  0  0  0  0  0  0
   -1.0739   -3.2609    0.3592 C   0  0  0  0  0  0  0  0  0  0  0  0
   -1.5269   -3.8145   -0.9277 C   0  0  0  0  0  0  0  0  0  0  0  0
   -1.0050   -5.2118   -0.8497 C   0  0  0  0  0  0  0  0  0  0  0  0
   -1.4901   -5.8340    0.4636 C   0  0  0  0  0  0  0  0  0  0  0  0
   -3.0030   -5.7990    0.4668 C   0  0  0  0  0  0  0  0  0  0  0  0
   -3.4861   -6.5984   -0.7356 C   0  0  0  0  0  0  0  0  0  0  0  0
   -3.0237   -8.0364   -0.6210 C   0  0  0  0  0  0  0  0  0  0  0  0
   -3.5301   -8.6629    0.6714 C   0  0  0  0  0  0  0  0  0  0  0  0
   -4.9875   -8.6441    0.6956 N   0  0  0  0  0  0  0  0  0  0  0  0
   -5.8142   -7.5694    0.7372 C   0  0  0  0  0  0  0  0  0  0  0  0
   -7.0909   -7.9938    0.6784 C   0  0  0  0  0  0  0  0  0  0  0  0
   -7.0746   -9.3290    0.6675 N   0  3  0  0  0  0  0  0  0  0  0  0
   -5.7899   -9.7163    0.6809 C   0  0  0  0  0  0  0  0  0  0  0  0
   -8.2397  -10.1716    0.6577 C   0  0  0  0  0  0  0  0  0  0  0  0
    0.6834   -0.4674    1.3713 H   0  0  0  0  0  0  0  0  0  0  0  0
   -0.2845    1.1634    0.3902 H   0  0  0  0  0  0  0  0  0  0  0  0
    1.3949   -0.7452    0.7952 H   0  0  0  0  0  0  0  0  0  0  0  0
   -0.5706   -0.6133   -1.7054 H   0  0  0  0  0  0  0  0  0  0  0  0
    1.1293   -0.2832   -2.4320 H   0  0  0  0  0  0  0  0  0  0  0  0
    0.7571   -3.0351   -2.1017 H   0  0  0  0  0  0  0  0  0  0  0  0
    2.3534   -2.3310   -1.0805 H   0  0  0  0  0  0  0  0  0  0  0  0
    1.1231   -4.3722    0.4546 H   0  0  0  0  0  0  0  0  0  0  0  0
    1.0587   -2.8016    1.2492 H   0  0  0  0  0  0  0  0  0  0  0  0
   -1.4541   -3.4203    1.3415 H   0  0  0  0  0  0  0  0  0  0  0  0
   -1.6767   -2.1844    0.3258 H   0  0  0  0  0  0  0  0  0  0  0  0
   -2.5971   -3.7042   -0.9984 H   0  0  0  0  0  0  0  0  0  0  0  0
   -1.1806   -3.2873   -1.8322 H   0  0  0  0  0  0  0  0  0  0  0  0
   -1.2830   -5.7472   -1.7216 H   0  0  0  0  0  0  0  0  0  0  0  0
    0.0750   -5.2727   -0.9226 H   0  0  0  0  0  0  0  0  0  0  0  0
   -1.0717   -6.8095    0.5843 H   0  0  0  0  0  0  0  0  0  0  0  0
   -1.1057   -5.3320    1.3598 H   0  0  0  0  0  0  0  0  0  0  0  0
   -3.3737   -6.1745    1.4142 H   0  0  0  0  0  0  0  0  0  0  0  0
   -3.4102   -4.7839    0.4402 H   0  0  0  0  0  0  0  0  0  0  0  0
   -4.5368   -6.5465   -0.8791 H   0  0  0  0  0  0  0  0  0  0  0  0
   -3.1933   -6.1538   -1.6751 H   0  0  0  0  0  0  0  0  0  0  0  0
   -3.3769   -8.6059   -1.4829 H   0  0  0  0  0  0  0  0  0  0  0  0
   -1.9279   -8.0821   -0.6601 H   0  0  0  0  0  0  0  0  0  0  0  0
   -3.1443   -9.6877    0.7391 H   0  0  0  0  0  0  0  0  0  0  0  0
   -3.1355   -8.1414    1.5517 H   0  0  0  0  0  0  0  0  0  0  0  0
   -5.5538   -6.5243    0.7894 H   0  0  0  0  0  0  0  0  0  0  0  0
   -7.9654   -7.3702    0.6633 H   0  0  0  0  0  0  0  0  0  0  0  0
   -5.4562  -10.7468    0.6785 H   0  0  0  0  0  0  0  0  0  0  0  0
   -8.2249  -10.8029   -0.2398 H   0  0  0  0  0  0  0  0  0  0  0  0
   -8.2381  -10.7983    1.5615 H   0  0  0  0  0  0  0  0  0  0  0  0
   -9.1506   -9.5475    0.6520 H   0  0  0  0  0  0  0  0  0  0  0  0
  1  2  1  0  0  0  0
  1  3  1  0  0  0  0
  1  4  1  0  0  0  0
  1  5  1  0  0  0  0
  6  7  1  0  0  0  0
  6 24  1  0  0  0  0
  6 25  1  0  0  0  0
  6 26  1  0  0  0  0
  7  8  1  0  0  0  0
  7 27  1  0  0  0  0
  7 28  1  0  0  0  0
  8  9  1  0  0  0  0
  8 29  1  0  0  0  0
  8 30  1  0  0  0  0
  9 10  1  0  0  0  0
  9 31  1  0  0  0  0
  9 32  1  0  0  0  0
 10 11  1  0  0  0  0
 10 33  1  0  0  0  0
 10 34  1  0  0  0  0
 11 12  1  0  0  0  0
 11 35  1  0  0  0  0
 11 36  1  0  0  0  0
 12 13  1  0  0  0  0
 12 37  1  0  0  0  0
 12 38  1  0  0  0  0
 13 14  1  0  0  0  0
 13 39  1  0  0  0  0
 13 40  1  0  0  0  0
 14 15  1  0  0  0  0
 14 41  1  0  0  0  0
 14 42  1  0  0  0  0
 15 16  1  0  0  0  0
 15 43  1  0  0  0  0
 15 44  1  0  0  0  0
 16 17  1  0  0  0  0
 16 45  1  0  0  0  0
 16 46  1  0  0  0  0
 17 18  1  0  0  0  0
 17 47  1  0  0  0  0
 17 48  1  0  0  0  0
 18 19  1  0  0  0  0
 18 22  1  0  0  0  0
 19 20  2  0  0  0  0
 19 49  1  0  0  0  0
 20 21  1  0  0  0  0
 20 50  1  0  0  0  0
 21 22  2  0  0  0  0
 21 23  1  0  0  0  0
 22 51  1  0  0  0  0
 23 52  1  0  0  0  0
 23 53  1  0  0  0  0
 23 54  1  0  0  0  0
M  CHG  2   1  -1  21   1
M  END
$$$$

 OpenBabel05152416213D

 57 56  0  0  0  0  0  0  0  0999 V2000
    1.6068   -0.5187    1.0758 C   0  0  0  0  0  0  0  0  0  0  0  0
    0.9220   -1.6961    0.0849 C   0  0  0  0  0  0  0  0  0  0  0  0
    1.1626   -2.7651    1.0138 C   0  0  0  0  0  0  0  0  0  0  0  0
    0.4667   -2.3004    2.3611 C   0  0  0  0  0  0  0  0  0  0  0  0
   -1.0618   -2.1350    2.1561 C   0  0  0  0  0  0  0  0  0  0  0  0
   -1.5474   -3.4989    1.7174 C   0  0  0  0  0  0  0  0  0  0  0  0
   -1.0129   -4.5300    2.7347 C   0  0  0  0  0  0  0  0  0  0  0  0
   -1.4863   -4.1056    4.1458 C   0  0  0  0  0  0  0  0  0  0  0  0
   -3.0245   -4.0524    4.1433 C   0  0  0  0  0  0  0  0  0  0  0  0
   -3.5763   -5.4419    3.7611 C   0  0  0  0  0  0  0  0  0  0  0  0
   -3.0685   -6.5122    4.7506 C   0  0  0  0  0  0  0  0  0  0  0  0
   -3.5284   -6.1508    6.1674 C   0  0  0  0  0  0  0  0  0  0  0  0
   -4.9838   -6.0890    6.1733 N   0  0  0  0  0  0  0  0  0  0  0  0
   -5.7710   -4.9903    6.1837 C   0  0  0  0  0  0  0  0  0  0  0  0
   -7.0821   -5.4086    6.1346 C   0  0  0  0  0  0  0  0  0  0  0  0
   -7.0890   -6.7544    6.1015 N   0  3  0  0  0  0  0  0  0  0  0  0
   -5.8053   -7.1483    6.1096 C   0  0  0  0  0  0  0  0  0  0  0  0
   -8.2549   -7.6173    6.0678 C   0  0  0  0  0  0  0  0  0  0  0  0
    0.5557    1.0456   -0.9397 C   0  0  0  0  0  0  0  0  0  0  0  0
   -0.3707    0.4737   -0.0146 F   0  0  0  0  0  0  0  0  0  0  0  0
    0.1243    2.2940   -0.5779 F   0  0  0  0  0  0  0  0  0  0  0  0
   -0.0684    0.4760   -2.0361 F   0  0  0  0  0  0  0  0  0  0  0  0
    2.8283    0.8115   -0.9918 S   0  0  0  0  0  0  0  0  0  0  0  0
    3.5866    1.0938    0.3632 O   0  0  0  0  0  0  0  0  0  0  0  0
    3.3732   -0.6792   -1.0160 O   0  0  0  0  0  0  0  0  0  0  0  0
    3.8563    1.5356   -2.0621 O   0  5  0  0  0  0  0  0  0  0  0  0
    0.9457    0.1754    1.6657 H   0  0  0  0  0  0  0  0  0  0  0  0
    1.6037    0.5991    1.0971 H   0  0  0  0  0  0  0  0  0  0  0  0
    1.4332   -0.5992    0.1293 H   0  0  0  0  0  0  0  0  0  0  0  0
   -0.1934   -1.7084   -0.2264 H   0  0  0  0  0  0  0  0  0  0  0  0
    1.2956   -2.0662   -0.9956 H   0  0  0  0  0  0  0  0  0  0  0  0
    0.8345   -3.7047    0.5354 H   0  0  0  0  0  0  0  0  0  0  0  0
    2.2741   -2.8022    1.0443 H   0  0  0  0  0  0  0  0  0  0  0  0
    0.9110   -2.9063    3.1367 H   0  0  0  0  0  0  0  0  0  0  0  0
    0.7592   -1.3826    2.9037 H   0  0  0  0  0  0  0  0  0  0  0  0
   -1.4647   -1.7286    3.1020 H   0  0  0  0  0  0  0  0  0  0  0  0
   -1.4857   -1.3924    1.4394 H   0  0  0  0  0  0  0  0  0  0  0  0
   -2.6388   -3.4876    1.6090 H   0  0  0  0  0  0  0  0  0  0  0  0
   -1.2232   -3.7349    0.6901 H   0  0  0  0  0  0  0  0  0  0  0  0
   -1.2915   -5.5341    2.4204 H   0  0  0  0  0  0  0  0  0  0  0  0
    0.0864   -4.6473    2.7244 H   0  0  0  0  0  0  0  0  0  0  0  0
   -1.0562   -4.7740    4.9026 H   0  0  0  0  0  0  0  0  0  0  0  0
   -1.0828   -3.1355    4.5009 H   0  0  0  0  0  0  0  0  0  0  0  0
   -3.3828   -3.6864    5.1132 H   0  0  0  0  0  0  0  0  0  0  0  0
   -3.4406   -3.2800    3.4678 H   0  0  0  0  0  0  0  0  0  0  0  0
   -4.6781   -5.4063    3.7330 H   0  0  0  0  0  0  0  0  0  0  0  0
   -3.3025   -5.7284    2.7256 H   0  0  0  0  0  0  0  0  0  0  0  0
   -3.4517   -7.5025    4.4482 H   0  0  0  0  0  0  0  0  0  0  0  0
   -1.9638   -6.6130    4.7252 H   0  0  0  0  0  0  0  0  0  0  0  0
   -3.1643   -6.8828    6.9092 H   0  0  0  0  0  0  0  0  0  0  0  0
   -3.1021   -5.1815    6.4947 H   0  0  0  0  0  0  0  0  0  0  0  0
   -5.4308   -3.9631    6.1968 H   0  0  0  0  0  0  0  0  0  0  0  0
   -7.9635   -4.7820    6.1208 H   0  0  0  0  0  0  0  0  0  0  0  0
   -5.4694   -8.1779    6.0772 H   0  0  0  0  0  0  0  0  0  0  0  0
   -8.2309   -8.2418    5.1516 H   0  0  0  0  0  0  0  0  0  0  0  0
   -8.2484   -8.2683    6.9673 H   0  0  0  0  0  0  0  0  0  0  0  0
   -9.1796   -7.0034    6.0722 H   0  0  0  0  0  0  0  0  0  0  0  0
  1  2  1  0  0  0  0
  1 27  1  0  0  0  0
  1 28  1  0  0  0  0
  1 29  1  0  0  0  0
  2  3  1  0  0  0  0
  2 30  1  0  0  0  0
  2 31  1  0  0  0  0
  3  4  1  0  0  0  0
  3 32  1  0  0  0  0
  3 33  1  0  0  0  0
  4  5  1  0  0  0  0
  4 34  1  0  0  0  0
  4 35  1  0  0  0  0
  5  6  1  0  0  0  0
  5 36  1  0  0  0  0
  5 37  1  0  0  0  0
  6  7  1  0  0  0  0
  6 38  1  0  0  0  0
  6 39  1  0  0  0  0
  7  8  1  0  0  0  0
  7 40  1  0  0  0  0
  7 41  1  0  0  0  0
  8  9  1  0  0  0  0
  8 42  1  0  0  0  0
  8 43  1  0  0  0  0
  9 10  1  0  0  0  0
  9 44  1  0  0  0  0
  9 45  1  0  0  0  0
 10 11  1  0  0  0  0
 10 46  1  0  0  0  0
 10 47  1  0  0  0  0
 11 12  1  0  0  0  0
 11 48  1  0  0  0  0
 11 49  1  0  0  0  0
 12 13  1  0  0  0  0
 12 50  1  0  0  0  0
 12 51  1  0  0  0  0
 13 14  1  0  0  0  0
 13 17  1  0  0  0  0
 14 15  2  0  0  0  0
 14 52  1  0  0  0  0
 15 16  1  0  0  0  0
 15 53  1  0  0  0  0
 16 17  2  0  0  0  0
 16 18  1  0  0  0  0
 17 54  1  0  0  0  0
 18 55  1  0  0  0  0
 18 56  1  0  0  0  0
 18 57  1  0  0  0  0
 19 20  1  0  0  0  0
 19 21  1  0  0  0  0
 19 22  1  0  0  0  0
 19 23  1  0  0  0  0
 23 24  2  0  0  0  0
 23 25  2  0  0  0  0
 23 26  1  0  0  0  0
M  CHG  2  16   1  26  -1
M  END
$$$$

 OpenBabel05152416213D

 30 32  0  0  0  0  0  0  0  0999 V2000
    1.0893   -0.0169    0.1830 C   0  0  0  0  0  0  0  0  0  0  0  0
    0.3702    1.4041    1.0834 S   0  0  0  0  0  0  0  0  0  0  0  0
    1.0991    1.1853    2.7261 C   0  0  0  0  0  0  0  0  0  0  0  0
    1.4815    2.2422    3.4981 N   0  0  0  0  0  0  0  0  0  0  0  0
    1.8668    1.6760    4.6582 C   0  0  0  0  0  0  0  0  0  0  0  0
    2.3327    2.2967    5.8224 C   0  0  0  0  0  0  0  0  0  0  0  0
    2.6427    1.4858    6.9485 C   0  0  0  0  0  0  0  0  0  0  0  0
    2.4412    0.0561    6.8425 C   0  0  0  0  0  0  0  0  0  0  0  0
    1.9988   -0.5088    5.6396 C   0  0  0  0  0  0  0  0  0  0  0  0
    1.7161    0.3268    4.5753 C   0  0  0  0  0  0  0  0  0  0  0  0
    1.2382    0.0009    3.3679 N   0  0  0  0  0  0  0  0  0  0  0  0
    2.6115   -1.1276    8.1386 Cl  0  0  0  0  0  0  0  0  0  0  0  0
    3.0582    2.1224    8.0861 O   0  0  0  0  0  0  0  0  0  0  0  0
    3.5817    1.5564    9.2047 C   0  0  0  0  0  0  0  0  0  0  0  0
    3.0270    1.8802   10.4536 C   0  0  0  0  0  0  0  0  0  0  0  0
    3.4875    1.2350   11.6156 C   0  0  0  0  0  0  0  0  0  0  0  0
    4.4957    0.2689   11.5246 C   0  0  0  0  0  0  0  0  0  0  0  0
    5.0762   -0.0266   10.2902 C   0  0  0  0  0  0  0  0  0  0  0  0
    4.6412    0.6311    9.1367 C   0  0  0  0  0  0  0  0  0  0  0  0
    2.7939    1.5943   13.1908 Cl  0  0  0  0  0  0  0  0  0  0  0  0
    1.7158    3.0540   10.5392 Cl  0  0  0  0  0  0  0  0  0  0  0  0
    0.7431    0.0566   -0.8725 H   0  0  0  0  0  0  0  0  0  0  0  0
    0.7041   -0.9819    0.5710 H   0  0  0  0  0  0  0  0  0  0  0  0
    2.1972    0.0209    0.1549 H   0  0  0  0  0  0  0  0  0  0  0  0
    2.4296    3.3772    5.8637 H   0  0  0  0  0  0  0  0  0  0  0  0
    1.8517   -1.5771    5.5601 H   0  0  0  0  0  0  0  0  0  0  0  0
    1.0001   -0.9582    3.0240 H   0  0  0  0  0  0  0  0  0  0  0  0
    4.8296   -0.2557   12.4111 H   0  0  0  0  0  0  0  0  0  0  0  0
    5.8501   -0.7810   10.2237 H   0  0  0  0  0  0  0  0  0  0  0  0
    5.0889    0.3797    8.1829 H   0  0  0  0  0  0  0  0  0  0  0  0
  1  2  1  0  0  0  0
  1 22  1  0  0  0  0
  1 23  1  0  0  0  0
  1 24  1  0  0  0  0
  2  3  1  0  0  0  0
  3  4  2  0  0  0  0
  3 11  1  0  0  0  0
  4  5  1  0  0  0  0
  5  6  2  0  0  0  0
  5 10  1  0  0  0  0
  6  7  1  0  0  0  0
  6 25  1  0  0  0  0
  7  8  2  0  0  0  0
  7 13  1  0  0  0  0
  8  9  1  0  0  0  0
  8 12  1  0  0  0  0
  9 10  2  0  0  0  0
  9 26  1  0  0  0  0
 10 11  1  0  0  0  0
 11 27  1  0  0  0  0
 13 14  1  0  0  0  0
 14 15  2  0  0  0  0
 14 19  1  0  0  0  0
 15 16  1  0  0  0  0
 15 21  1  0  0  0  0
 16 17  2  0  0  0  0
 16 20  1  0  0  0  0
 17 18  1  0  0  0  0
 17 28  1  0  0  0  0
 18 19  2  0  0  0  0
 18 29  1  0  0  0  0
 19 30  1  0  0  0  0
M  END
$$$$

 OpenBabel05152416213D

 61 60  0  0  0  0  0  0  0  0999 V2000
    0.7892   -0.1779    0.2165 C   0  0  0  0  0  0  0  0  0  0  0  0
    0.4277   -0.2928   -1.2962 C   0  0  0  0  0  0  0  0  0  0  0  0
    1.0114   -1.5922   -1.8706 C   0  0  0  0  0  0  0  0  0  0  0  0
    0.4883   -2.7849   -1.0628 C   0  0  0  0  0  0  0  0  0  0  0  0
   -1.0603   -2.7692   -1.0820 C   0  0  0  0  0  0  0  0  0  0  0  0
   -1.5538   -2.9064   -2.5388 C   0  0  0  0  0  0  0  0  0  0  0  0
   -1.0284   -4.2382   -3.1081 C   0  0  0  0  0  0  0  0  0  0  0  0
   -1.5343   -5.3915   -2.2116 C   0  0  0  0  0  0  0  0  0  0  0  0
   -3.0788   -5.3755   -2.2063 C   0  0  0  0  0  0  0  0  0  0  0  0
   -3.5663   -5.5393   -3.6575 C   0  0  0  0  0  0  0  0  0  0  0  0
   -2.9923   -6.8675   -4.2096 C   0  0  0  0  0  0  0  0  0  0  0  0
   -3.5240   -8.0432   -3.3513 C   0  0  0  0  0  0  0  0  0  0  0  0
   -5.0576   -8.0093   -3.3942 C   0  0  0  0  0  0  0  0  0  0  0  0
   -5.4774   -8.1299   -4.8855 C   0  0  0  0  0  0  0  0  0  0  0  0
   -5.1842   -9.5597   -5.3884 C   0  0  0  0  0  0  0  0  0  0  0  0
   -5.7273  -10.6886   -4.4508 C   0  0  0  0  0  0  0  0  0  0  0  0
   -7.2147  -10.7402   -4.4209 N   0  3  0  0  0  0  0  0  0  0  0  0
   -7.8218  -11.9653   -4.5488 C   0  0  0  0  0  0  0  0  0  0  0  0
   -9.2151  -12.0389   -4.6888 C   0  0  0  0  0  0  0  0  0  0  0  0
   -9.9759  -10.8737   -4.7248 C   0  0  0  0  0  0  0  0  0  0  0  0
   -9.3640   -9.6599   -4.5055 C   0  0  0  0  0  0  0  0  0  0  0  0
   -8.0029   -9.6374   -4.3016 C   0  0  0  0  0  0  0  0  0  0  0  0
    2.8030    1.8154   -1.2906 Cl  0  5  0  0  0  0  0  0  0  0  0  0
    0.2584   -0.9455    0.8184 H   0  0  0  0  0  0  0  0  0  0  0  0
    0.4666    0.7846    0.6442 H   0  0  0  0  0  0  0  0  0  0  0  0
    1.8711   -0.3493    0.4252 H   0  0  0  0  0  0  0  0  0  0  0  0
   -0.6710   -0.2059   -1.4027 H   0  0  0  0  0  0  0  0  0  0  0  0
    0.7469    0.5134   -1.9729 H   0  0  0  0  0  0  0  0  0  0  0  0
    0.7626   -1.6870   -2.9515 H   0  0  0  0  0  0  0  0  0  0  0  0
    2.1180   -1.5660   -1.8517 H   0  0  0  0  0  0  0  0  0  0  0  0
    0.9315   -3.7241   -1.4398 H   0  0  0  0  0  0  0  0  0  0  0  0
    0.8653   -2.7668   -0.0288 H   0  0  0  0  0  0  0  0  0  0  0  0
   -1.4550   -3.5395   -0.4016 H   0  0  0  0  0  0  0  0  0  0  0  0
   -1.5080   -1.8782   -0.6160 H   0  0  0  0  0  0  0  0  0  0  0  0
   -2.6545   -2.8171   -2.5779 H   0  0  0  0  0  0  0  0  0  0  0  0
   -1.2553   -2.0678   -3.1909 H   0  0  0  0  0  0  0  0  0  0  0  0
   -1.3113   -4.3386   -4.1698 H   0  0  0  0  0  0  0  0  0  0  0  0
    0.0681   -4.2758   -3.1955 H   0  0  0  0  0  0  0  0  0  0  0  0
   -1.0970   -6.3474   -2.5362 H   0  0  0  0  0  0  0  0  0  0  0  0
   -1.1476   -5.3651   -1.1826 H   0  0  0  0  0  0  0  0  0  0  0  0
   -3.4674   -6.1475   -1.5218 H   0  0  0  0  0  0  0  0  0  0  0  0
   -3.5140   -4.4672   -1.7559 H   0  0  0  0  0  0  0  0  0  0  0  0
   -4.6655   -5.4531   -3.7066 H   0  0  0  0  0  0  0  0  0  0  0  0
   -3.2940   -4.7000   -4.3168 H   0  0  0  0  0  0  0  0  0  0  0  0
   -3.1926   -6.9456   -5.2837 H   0  0  0  0  0  0  0  0  0  0  0  0
   -1.8985   -6.9044   -4.2777 H   0  0  0  0  0  0  0  0  0  0  0  0
   -3.1134   -9.0007   -3.7113 H   0  0  0  0  0  0  0  0  0  0  0  0
   -3.1683   -8.0130   -2.3033 H   0  0  0  0  0  0  0  0  0  0  0  0
   -5.4967   -8.7658   -2.7181 H   0  0  0  0  0  0  0  0  0  0  0  0
   -5.4832   -7.1068   -2.9228 H   0  0  0  0  0  0  0  0  0  0  0  0
   -6.4549   -7.7097   -5.1024 H   0  0  0  0  0  0  0  0  0  0  0  0
   -5.0606   -7.3887   -5.5656 H   0  0  0  0  0  0  0  0  0  0  0  0
   -5.5570   -9.6675   -6.4232 H   0  0  0  0  0  0  0  0  0  0  0  0
   -4.0799   -9.6768   -5.4624 H   0  0  0  0  0  0  0  0  0  0  0  0
   -5.3167  -11.6402   -4.8533 H   0  0  0  0  0  0  0  0  0  0  0  0
   -5.2985  -10.6622   -3.4315 H   0  0  0  0  0  0  0  0  0  0  0  0
   -7.2356  -12.8707   -4.5359 H   0  0  0  0  0  0  0  0  0  0  0  0
   -9.6979  -12.9961   -4.7951 H   0  0  0  0  0  0  0  0  0  0  0  0
  -11.0414  -10.8881   -4.8861 H   0  0  0  0  0  0  0  0  0  0  0  0
   -9.9152   -8.7288   -4.4903 H   0  0  0  0  0  0  0  0  0  0  0  0
   -7.6732   -8.6781   -4.0643 H   0  0  0  0  0  0  0  0  0  0  0  0
  1  2  1  0  0  0  0
  1 24  1  0  0  0  0
  1 25  1  0  0  0  0
  1 26  1  0  0  0  0
  2  3  1  0  0  0  0
  2 27  1  0  0  0  0
  2 28  1  0  0  0  0
  3  4  1  0  0  0  0
  3 29  1  0  0  0  0
  3 30  1  0  0  0  0
  4  5  1  0  0  0  0
  4 31  1  0  0  0  0
  4 32  1  0  0  0  0
  5  6  1  0  0  0  0
  5 33  1  0  0  0  0
  5 34  1  0  0  0  0
  6  7  1  0  0  0  0
  6 35  1  0  0  0  0
  6 36  1  0  0  0  0
  7  8  1  0  0  0  0
  7 37  1  0  0  0  0
  7 38  1  0  0  0  0
  8  9  1  0  0  0  0
  8 39  1  0  0  0  0
  8 40  1  0  0  0  0
  9 10  1  0  0  0  0
  9 41  1  0  0  0  0
  9 42  1  0  0  0  0
 10 11  1  0  0  0  0
 10 43  1  0  0  0  0
 10 44  1  0  0  0  0
 11 12  1  0  0  0  0
 11 45  1  0  0  0  0
 11 46  1  0  0  0  0
 12 13  1  0  0  0  0
 12 47  1  0  0  0  0
 12 48  1  0  0  0  0
 13 14  1  0  0  0  0
 13 49  1  0  0  0  0
 13 50  1  0  0  0  0
 14 15  1  0  0  0  0
 14 51  1  0  0  0  0
 14 52  1  0  0  0  0
 15 16  1  0  0  0  0
 15 53  1  0  0  0  0
 15 54  1  0  0  0  0
 16 17  1  0  0  0  0
 16 55  1  0  0  0  0
 16 56  1  0  0  0  0
 17 18  2  0  0  0  0
 17 22  1  0  0  0  0
 18 19  1  0  0  0  0
 18 57  1  0  0  0  0
 19 20  2  0  0  0  0
 19 58  1  0  0  0  0
 20 21  1  0  0  0  0
 20 59  1  0  0  0  0
 21 22  2  0  0  0  0
 21 60  1  0  0  0  0
 22 61  1  0  0  0  0
M  CHG  2  17   1  23  -1
M  END
$$$$

 OpenBabel05152416213D

 61 65  0  0  0  0  0  0  0  0999 V2000
   -1.4002   -0.2683    0.4515 C   0  0  0  0  0  0  0  0  0  0  0  0
   -0.3458    1.1779    1.1824 C   0  0  0  0  0  0  0  0  0  0  0  0
    1.2586    1.2353    0.7736 C   0  0  0  0  0  0  0  0  0  0  0  0
    1.7014   -0.2100    0.4932 N   0  0  0  0  0  0  0  0  0  0  0  0
    0.8265   -1.3785   -0.0879 C   0  0  0  0  0  0  0  0  0  0  0  0
   -0.6443   -1.4926    0.4373 C   0  0  0  0  0  0  0  0  0  0  0  0
    2.9704   -0.1404   -0.2317 C   0  0  0  0  0  0  0  0  0  0  0  0
    2.8286   -0.0396   -1.8276 C   0  0  0  0  0  0  0  0  0  0  0  0
    2.0287    0.9409   -2.5164 O   0  0  0  0  0  0  0  0  0  0  0  0
    0.6602    1.3099   -2.4297 C   0  0  0  0  0  0  0  0  0  0  0  0
   -0.0501    1.9776   -3.3345 C   0  0  0  0  0  0  0  0  0  0  0  0
   -1.3250    2.4882   -2.9877 C   0  0  0  0  0  0  0  0  0  0  0  0
   -1.9479    2.3614   -1.7061 C   0  0  0  0  0  0  0  0  0  0  0  0
   -1.4337    1.7058   -0.9698 C   0  0  0  0  0  0  0  0  0  0  0  0
   -0.1709    1.0802   -1.4059 C   0  0  0  0  0  0  0  0  0  0  0  0
   -3.2119    2.9938   -1.3846 C   0  0  0  0  0  0  0  0  0  0  0  0
   -3.2378    3.6369   -2.2876 O   0  0  0  0  0  0  0  0  0  0  0  0
   -4.4880    3.2887   -0.6581 C   0  0  0  0  0  0  0  0  0  0  0  0
   -5.2993    2.4866    0.3466 C   0  0  0  0  0  0  0  0  0  0  0  0
   -6.6698    2.3426   -0.5164 S   0  0  0  0  0  0  0  0  0  0  0  0
   -6.2185    2.8514   -2.0967 C   0  0  0  0  0  0  0  0  0  0  0  0
   -5.4797    3.9147   -1.9272 C   0  0  0  0  0  0  0  0  0  0  0  0
   -5.2586    4.4504   -3.4915 C   0  0  0  0  0  0  0  0  0  0  0  0
   -4.6578    3.5917   -4.4906 C   0  0  0  0  0  0  0  0  0  0  0  0
   -4.5279    2.3138   -4.0293 C   0  0  0  0  0  0  0  0  0  0  0  0
   -5.3083    1.9598   -2.8615 C   0  0  0  0  0  0  0  0  0  0  0  0
   -3.6436    1.4647   -4.6030 O   0  0  0  0  0  0  0  0  0  0  0  0
   -5.5932    2.0470    1.9516 C   0  0  0  0  0  0  0  0  0  0  0  0
   -6.8694    1.4213    2.2871 C   0  0  0  0  0  0  0  0  0  0  0  0
   -7.4380    1.3909    3.6004 C   0  0  0  0  0  0  0  0  0  0  0  0
   -6.7081    1.8005    4.7054 C   0  0  0  0  0  0  0  0  0  0  0  0
   -5.4300    2.3116    4.4749 C   0  0  0  0  0  0  0  0  0  0  0  0
   -4.8858    2.4284    3.1432 C   0  0  0  0  0  0  0  0  0  0  0  0
   -7.2206    1.6685    5.9622 O   0  0  0  0  0  0  0  0  0  0  0  0
   -2.5622   -0.2547    0.5196 H   0  0  0  0  0  0  0  0  0  0  0  0
   -1.7563   -0.4532   -0.7374 H   0  0  0  0  0  0  0  0  0  0  0  0
   -0.6237    2.4055    1.0170 H   0  0  0  0  0  0  0  0  0  0  0  0
   -0.4796    1.2233    2.2214 H   0  0  0  0  0  0  0  0  0  0  0  0
    1.6492    1.6830   -0.2342 H   0  0  0  0  0  0  0  0  0  0  0  0
    1.5556    2.2675    0.2340 H   0  0  0  0  0  0  0  0  0  0  0  0
    1.2782   -2.3585    0.1103 H   0  0  0  0  0  0  0  0  0  0  0  0
    0.7027   -1.3656   -1.2325 H   0  0  0  0  0  0  0  0  0  0  0  0
   -0.6885   -1.5294    1.4851 H   0  0  0  0  0  0  0  0  0  0  0  0
   -1.2454   -2.2671   -0.1539 H   0  0  0  0  0  0  0  0  0  0  0  0
    3.5429    0.7392    0.1623 H   0  0  0  0  0  0  0  0  0  0  0  0
    3.5168   -1.0452    0.1115 H   0  0  0  0  0  0  0  0  0  0  0  0
    3.9032   -0.0259   -2.1564 H   0  0  0  0  0  0  0  0  0  0  0  0
    2.4393   -0.9800   -2.1918 H   0  0  0  0  0  0  0  0  0  0  0  0
    0.3532    2.0627   -4.2791 H   0  0  0  0  0  0  0  0  0  0  0  0
   -1.8508    2.9938   -3.6700 H   0  0  0  0  0  0  0  0  0  0  0  0
   -2.1382    1.6834    0.0062 H   0  0  0  0  0  0  0  0  0  0  0  0
    0.1778    0.4803   -0.9152 H   0  0  0  0  0  0  0  0  0  0  0  0
   -5.8757    5.1562   -4.1757 H   0  0  0  0  0  0  0  0  0  0  0  0
   -4.3528    3.8294   -5.5595 H   0  0  0  0  0  0  0  0  0  0  0  0
   -4.8701    1.1283   -2.3590 H   0  0  0  0  0  0  0  0  0  0  0  0
   -3.4042    0.6385   -4.1563 H   0  0  0  0  0  0  0  0  0  0  0  0
   -7.4844    0.9944    1.5124 H   0  0  0  0  0  0  0  0  0  0  0  0
   -8.4678    1.0696    3.7645 H   0  0  0  0  0  0  0  0  0  0  0  0
   -4.8793    2.6754    5.3371 H   0  0  0  0  0  0  0  0  0  0  0  0
   -3.9262    2.8657    3.0643 H   0  0  0  0  0  0  0  0  0  0  0  0
   -6.6999    1.8271    6.7687 H   0  0  0  0  0  0  0  0  0  0  0  0
  1  2  1  0  0  0  0
  1  6  1  0  0  0  0
  1 35  1  0  0  0  0
  1 36  1  0  0  0  0
  2  3  1  0  0  0  0
  2 37  1  0  0  0  0
  2 38  1  0  0  0  0
  3  4  1  0  0  0  0
  3 39  1  0  0  0  0
  3 40  1  0  0  0  0
  4  5  1  0  0  0  0
  4  7  1  0  0  0  0
  5  6  1  0  0  0  0
  5 41  1  0  0  0  0
  5 42  1  0  0  0  0
  6 43  1  0  0  0  0
  6 44  1  0  0  0  0
  7  8  1  0  0  0  0
  7 45  1  0  0  0  0
  7 46  1  0  0  0  0
  8  9  1  0  0  0  0
  8 47  1  0  0  0  0
  8 48  1  0  0  0  0
  9 10  1  0  0  0  0
 10 11  2  0  0  0  0
 10 15  1  0  0  0  0
 11 12  1  0  0  0  0
 11 49  1  0  0  0  0
 12 13  2  0  0  0  0
 12 50  1  0  0  0  0
 13 14  1  0  0  0  0
 13 16  1  0  0  0  0
 14 15  2  0  0  0  0
 14 51  1  0  0  0  0
 15 52  1  0  0  0  0
 16 17  2  0  0  0  0
 16 18  1  0  0  0  0
 18 19  2  0  0  0  0
 18 22  1  0  0  0  0
 19 20  1  0  0  0  0
 19 28  1  0  0  0  0
 20 21  1  0  0  0  0
 21 22  2  0  0  0  0
 21 26  1  0  0  0  0
 22 23  1  0  0  0  0
 23 24  2  0  0  0  0
 23 53  1  0  0  0  0
 24 25  1  0  0  0  0
 24 54  1  0  0  0  0
 25 26  2  0  0  0  0
 25 27  1  0  0  0  0
 26 55  1  0  0  0  0
 27 56  1  0  0  0  0
 28 29  2  0  0  0  0
 28 33  1  0  0  0  0
 29 30  1  0  0  0  0
 29 57  1  0  0  0  0
 30 31  2  0  0  0  0
 30 58  1  0  0  0  0
 31 32  1  0  0  0  0
 31 34  1  0  0  0  0
 32 33  2  0  0  0  0
 32 59  1  0  0  0  0
 33 60  1  0  0  0  0
 34 61  1  0  0  0  0
M  END
$$$$

 OpenBabel05152416213D

 36 38  0  0  0  0  0  0  0  0999 V2000
   -1.3024   -1.5040   -0.0043 C   0  0  0  0  0  0  0  0  0  0  0  0
   -0.0568   -2.1370    0.0396 C   0  0  0  0  0  0  0  0  0  0  0  0
    1.1136   -1.3630    0.1832 C   0  0  0  0  0  0  0  0  0  0  0  0
    0.9384    0.0672    0.3218 C   0  0  0  0  0  0  0  0  0  0  0  0
   -0.2767    0.6404    0.1292 C   0  0  0  0  0  0  0  0  0  0  0  0
   -1.3889   -0.1162   -0.0028 C   0  0  0  0  0  0  0  0  0  0  0  0
   -2.8839    0.7567   -0.0766 Cl  0  0  0  0  0  0  0  0  0  0  0  0
    1.9997    1.4118    0.6907 Cl  0  0  0  0  0  0  0  0  0  0  0  0
    2.4452   -2.1008    0.0450 C   0  0  0  0  0  0  0  0  0  0  0  0
    3.0023   -1.7750   -1.4195 C   0  0  0  0  0  0  0  0  0  0  0  0
    3.1717   -0.2546   -1.7498 N   0  0  0  0  0  0  0  0  0  0  0  0
    2.2492    0.5791   -2.0399 C   0  0  0  0  0  0  0  0  0  0  0  0
    2.7865    1.8920   -1.9619 C   0  0  0  0  0  0  0  0  0  0  0  0
    4.0449    1.8156   -1.7623 N   0  0  0  0  0  0  0  0  0  0  0  0
    4.1628    0.5031   -1.6701 C   0  0  0  0  0  0  0  0  0  0  0  0
    3.3621   -2.0518    1.1715 O   0  0  0  0  0  0  0  0  0  0  0  0
    3.7857   -0.7511    1.5205 C   0  0  0  0  0  0  0  0  0  0  0  0
    5.1703   -0.1591    0.6003 C   0  0  0  0  0  0  0  0  0  0  0  0
    5.6380    1.2455    0.2964 C   0  0  0  0  0  0  0  0  0  0  0  0
    6.7363    1.3072   -1.3001 S   0  0  0  0  0  0  0  0  0  0  0  0
    6.5988   -0.6860   -1.8435 C   0  0  0  0  0  0  0  0  0  0  0  0
    5.7366   -1.3402   -0.4871 C   0  0  0  0  0  0  0  0  0  0  0  0
    4.5411    2.9356    1.0401 Cl  0  0  0  0  0  0  0  0  0  0  0  0
   -2.2034   -2.0739   -0.0649 H   0  0  0  0  0  0  0  0  0  0  0  0
   -0.0148   -3.2223   -0.0397 H   0  0  0  0  0  0  0  0  0  0  0  0
   -0.3521    1.7233    0.0998 H   0  0  0  0  0  0  0  0  0  0  0  0
    2.2299   -3.2088   -0.0252 H   0  0  0  0  0  0  0  0  0  0  0  0
    3.7428   -2.5229   -1.7066 H   0  0  0  0  0  0  0  0  0  0  0  0
    2.3463   -2.1572   -2.2226 H   0  0  0  0  0  0  0  0  0  0  0  0
    1.2385    0.3895   -2.1025 H   0  0  0  0  0  0  0  0  0  0  0  0
    2.3662    2.8632   -1.8476 H   0  0  0  0  0  0  0  0  0  0  0  0
    4.8142    0.3823   -1.3596 H   0  0  0  0  0  0  0  0  0  0  0  0
    2.8021   -0.3392    1.9333 H   0  0  0  0  0  0  0  0  0  0  0  0
    4.1379   -0.5479    2.5365 H   0  0  0  0  0  0  0  0  0  0  0  0
    6.5558   -1.1907   -3.0078 H   0  0  0  0  0  0  0  0  0  0  0  0
    5.3118   -2.4821   -0.4852 H   0  0  0  0  0  0  0  0  0  0  0  0
  1  2  2  0  0  0  0
  1  6  1  0  0  0  0
  1 24  1  0  0  0  0
  2  3  1  0  0  0  0
  2 25  1  0  0  0  0
  3  4  2  0  0  0  0
  3  9  1  0  0  0  0
  4  5  1  0  0  0  0
  4  8  1  0  0  0  0
  5  6  2  0  0  0  0
  5 26  1  0  0  0  0
  6  7  1  0  0  0  0
  9 10  1  0  0  0  0
  9 16  1  0  0  0  0
  9 27  1  0  0  0  0
 10 11  1  0  0  0  0
 10 28  1  0  0  0  0
 10 29  1  0  0  0  0
 11 12  1  0  0  0  0
 11 15  1  0  0  0  0
 12 13  2  0  0  0  0
 12 30  1  0  0  0  0
 13 14  1  0  0  0  0
 13 31  1  0  0  0  0
 14 15  2  0  0  0  0
 15 32  1  0  0  0  0
 16 17  1  0  0  0  0
 17 18  1  0  0  0  0
 17 33  1  0  0  0  0
 17 34  1  0  0  0  0
 18 19  2  0  0  0  0
 18 22  1  0  0  0  0
 19 20  1  0  0  0  0
 19 23  1  0  0  0  0
 20 21  1  0  0  0  0
 21 22  2  0  0  0  0
 21 35  1  0  0  0  0
 22 36  1  0  0  0  0
M  END
$$$$

 OpenBabel05152416213D

 75 79  0  0  1  0  0  0  0  0999 V2000
   -5.0461   -0.8467   -5.9686 C   0  0  0  0  0  0  0  0  0  0  0  0
   -3.5842   -0.7950   -5.5236 C   0  0  0  0  0  0  0  0  0  0  0  0
   -2.9030    0.5871   -5.6214 C   0  0  1  0  0  0  0  0  0  0  0  0
   -3.1736    1.3275   -6.9637 C   0  0  0  0  0  0  0  0  0  0  0  0
   -4.3847    2.2002   -7.0217 N   0  0  0  0  0  0  0  0  0  0  0  0
   -4.5272    2.9764   -8.2577 C   0  0  0  0  0  0  0  0  0  0  0  0
   -4.0404    4.4336   -8.1178 C   0  0  0  0  0  0  0  0  0  0  0  0
   -4.7905    5.1701   -7.0573 C   0  0  0  0  0  0  0  0  0  0  0  0
   -4.7458    6.5895   -7.0013 C   0  0  0  0  0  0  0  0  0  0  0  0
   -5.3397    7.3528   -5.8992 C   0  0  0  0  0  0  0  0  0  0  0  0
   -6.1229    6.6136   -5.0186 C   0  0  0  0  0  0  0  0  0  0  0  0
   -6.2738    5.1534   -5.1972 C   0  0  0  0  0  0  0  0  0  0  0  0
   -5.4535    4.3730   -6.0768 C   0  0  0  0  0  0  0  0  0  0  0  0
   -5.1789    2.7644   -5.8852 C   0  0  2  0  0  0  0  0  0  0  0  0
   -4.6423    2.1077   -4.4905 C   0  0  0  0  0  0  0  0  0  0  0  0
   -3.1896    1.5025   -4.4131 C   0  0  2  0  0  0  0  0  0  0  0  0
   -2.0041    2.4719   -4.1981 C   0  0  0  0  0  0  0  0  0  0  0  0
   -2.3639    3.8344   -3.6200 C   0  0  2  0  0  0  0  0  0  0  0  0
   -3.2115    3.8482   -2.3258 C   0  0  0  0  0  0  0  0  0  0  0  0
   -2.8444    3.1364   -1.2940 C   0  0  0  0  0  0  0  0  0  0  0  0
   -3.6010    3.1247   -0.0978 C   0  0  0  0  0  0  0  0  0  0  0  0
   -4.8112    3.8522    0.0134 C   0  0  0  0  0  0  0  0  0  0  0  0
   -5.1685    4.5975   -0.9869 C   0  0  0  0  0  0  0  0  0  0  0  0
   -4.3355    4.6344   -2.1030 C   0  0  0  0  0  0  0  0  0  0  0  0
   -4.6706    5.5999   -2.9710 C   0  0  0  0  0  0  0  0  0  0  0  0
   -3.5765    5.7014   -4.1378 C   0  0  0  0  0  0  0  0  0  0  0  0
   -3.0857    4.4654   -4.6595 N   0  0  0  0  0  0  0  0  0  0  0  0
   -5.6322    3.9478    1.0584 O   0  0  0  0  0  0  0  0  0  0  0  0
   -5.3314    3.3698    2.2209 C   0  0  0  0  0  0  0  0  0  0  0  0
   -3.1322    2.4248    0.9265 O   0  0  0  0  0  0  0  0  0  0  0  0
   -1.9541    1.7608    0.7995 C   0  0  0  0  0  0  0  0  0  0  0  0
   -6.4905    7.3556   -3.7964 O   0  0  0  0  0  0  0  0  0  0  0  0
   -5.8536    8.2988   -2.9024 C   0  0  0  0  0  0  0  0  0  0  0  0
   -5.0485    8.5667   -5.5474 O   0  0  0  0  0  0  0  0  0  0  0  0
   -4.2746    9.4785   -6.2154 C   0  0  0  0  0  0  0  0  0  0  0  0
   -5.7273   -0.2148   -5.4092 H   0  0  0  0  0  0  0  0  0  0  0  0
   -5.4265   -1.8730   -5.8398 H   0  0  0  0  0  0  0  0  0  0  0  0
   -5.1423   -0.5436   -7.0278 H   0  0  0  0  0  0  0  0  0  0  0  0
   -3.4534   -1.1888   -4.4885 H   0  0  0  0  0  0  0  0  0  0  0  0
   -3.0258   -1.4935   -6.1895 H   0  0  0  0  0  0  0  0  0  0  0  0
   -1.8151    0.3104   -5.5920 H   0  0  0  0  0  0  0  0  0  0  0  0
   -2.2757    1.9151   -7.2443 H   0  0  0  0  0  0  0  0  0  0  0  0
   -3.2701    0.5519   -7.7620 H   0  0  0  0  0  0  0  0  0  0  0  0
   -3.9945    2.4869   -9.0955 H   0  0  0  0  0  0  0  0  0  0  0  0
   -5.6128    2.9902   -8.4885 H   0  0  0  0  0  0  0  0  0  0  0  0
   -2.9481    4.5225   -7.9378 H   0  0  0  0  0  0  0  0  0  0  0  0
   -4.3024    4.9527   -9.0631 H   0  0  0  0  0  0  0  0  0  0  0  0
   -4.0962    7.1446   -7.6774 H   0  0  0  0  0  0  0  0  0  0  0  0
   -6.7701    4.4483   -4.5219 H   0  0  0  0  0  0  0  0  0  0  0  0
   -6.1816    2.2976   -5.9685 H   0  0  0  0  0  0  0  0  0  0  0  0
   -5.2622    1.2469   -4.1990 H   0  0  0  0  0  0  0  0  0  0  0  0
   -4.9211    2.6336   -3.5777 H   0  0  0  0  0  0  0  0  0  0  0  0
   -3.1315    0.8738   -3.4856 H   0  0  0  0  0  0  0  0  0  0  0  0
   -1.2510    1.9969   -3.5390 H   0  0  0  0  0  0  0  0  0  0  0  0
   -1.4725    2.6415   -5.1640 H   0  0  0  0  0  0  0  0  0  0  0  0
   -1.4164    4.3909   -3.4716 H   0  0  0  0  0  0  0  0  0  0  0  0
   -1.9271    2.6284   -1.4684 H   0  0  0  0  0  0  0  0  0  0  0  0
   -6.0993    5.1923   -0.8931 H   0  0  0  0  0  0  0  0  0  0  0  0
   -5.7710    5.4057   -3.0247 H   0  0  0  0  0  0  0  0  0  0  0  0
   -5.7654    5.3810   -3.0335 H   0  0  0  0  0  0  0  0  0  0  0  0
   -2.8210    6.4851   -3.9965 H   0  0  0  0  0  0  0  0  0  0  0  0
   -3.8426    6.0832   -4.9700 H   0  0  0  0  0  0  0  0  0  0  0  0
   -2.4893    4.5828   -5.5300 H   0  0  0  0  0  0  0  0  0  0  0  0
   -5.2888    2.2842    2.0033 H   0  0  0  0  0  0  0  0  0  0  0  0
   -4.3572    3.8087    2.5297 H   0  0  0  0  0  0  0  0  0  0  0  0
   -6.1229    3.6131    2.9385 H   0  0  0  0  0  0  0  0  0  0  0  0
   -2.0702    1.0204   -0.0336 H   0  0  0  0  0  0  0  0  0  0  0  0
   -1.1534    2.5026    0.5358 H   0  0  0  0  0  0  0  0  0  0  0  0
   -1.7531    1.2843    1.7464 H   0  0  0  0  0  0  0  0  0  0  0  0
   -4.7317    8.5753   -2.8667 H   0  0  0  0  0  0  0  0  0  0  0  0
   -6.3990    9.2527   -2.9829 H   0  0  0  0  0  0  0  0  0  0  0  0
   -5.9909    8.0415   -1.8063 H   0  0  0  0  0  0  0  0  0  0  0  0
   -3.2346    9.1012   -6.3385 H   0  0  0  0  0  0  0  0  0  0  0  0
   -4.8168    9.6081   -7.1581 H   0  0  0  0  0  0  0  0  0  0  0  0
   -4.2690   10.4185   -5.6286 H   0  0  0  0  0  0  0  0  0  0  0  0
  1  2  1  0  0  0  0
  1 36  1  0  0  0  0
  1 37  1  0  0  0  0
  1 38  1  0  0  0  0
  2  3  1  0  0  0  0
  2 39  1  0  0  0  0
  2 40  1  0  0  0  0
  3  4  1  0  0  0  0
  3 16  1  0  0  0  0
  3 41  1  1  0  0  0
  4  5  1  0  0  0  0
  4 42  1  0  0  0  0
  4 43  1  0  0  0  0
  5  6  1  0  0  0  0
  5 14  1  0  0  0  0
  6  7  1  0  0  0  0
  6 44  1  0  0  0  0
  6 45  1  0  0  0  0
  7  8  1  0  0  0  0
  7 46  1  0  0  0  0
  7 47  1  0  0  0  0
  8  9  2  0  0  0  0
  8 13  1  0  0  0  0
  9 10  1  0  0  0  0
  9 48  1  0  0  0  0
 10 11  2  0  0  0  0
 10 34  1  0  0  0  0
 11 12  1  0  0  0  0
 11 32  1  0  0  0  0
 12 13  2  0  0  0  0
 12 49  1  0  0  0  0
 13 14  1  0  0  0  0
 14 15  1  0  0  0  0
 14 50  1  6  0  0  0
 15 16  1  0  0  0  0
 15 51  1  0  0  0  0
 15 52  1  0  0  0  0
 16 53  1  1  0  0  0
 16 17  1  0  0  0  0
 17 54  1  0  0  0  0
 17 55  1  0  0  0  0
 18 19  1  0  0  0  0
 18 27  1  0  0  0  0
 18 56  1  1  0  0  0
 18 17  1  0  0  0  0
 19 20  2  0  0  0  0
 19 24  1  0  0  0  0
 20 21  1  0  0  0  0
 20 57  1  0  0  0  0
 21 22  2  0  0  0  0
 21 30  1  0  0  0  0
 22 23  1  0  0  0  0
 22 28  1  0  0  0  0
 23 24  2  0  0  0  0
 23 58  1  0  0  0  0
 24 25  1  0  0  0  0
 25 26  1  0  0  0  0
 25 59  1  0  0  0  0
 25 60  1  0  0  0  0
 26 27  1  0  0  0  0
 26 61  1  0  0  0  0
 26 62  1  0  0  0  0
 27 63  1  0  0  0  0
 28 29  1  0  0  0  0
 29 64  1  0  0  0  0
 29 65  1  0  0  0  0
 29 66  1  0  0  0  0
 30 31  1  0  0  0  0
 31 67  1  0  0  0  0
 31 68  1  0  0  0  0
 31 69  1  0  0  0  0
 32 33  1  0  0  0  0
 33 70  1  0  0  0  0
 33 71  1  0  0  0  0
 33 72  1  0  0  0  0
 34 35  1  0  0  0  0
 35 73  1  0  0  0  0
 35 74  1  0  0  0  0
 35 75  1  0  0  0  0
M  END
$$$$

 OpenBabel05152416213D

 64 63  0  0  0  0  0  0  0  0999 V2000
    1.4928    0.6652   -1.0556 C   0  0  0  0  0  0  0  0  0  0  0  0
    0.9072    1.5021    0.4300 C   0  0  0  0  0  0  0  0  0  0  0  0
    1.1687    2.8377    0.0393 C   0  0  0  0  0  0  0  0  0  0  0  0
    0.4921    2.8966   -1.3606 C   0  0  0  0  0  0  0  0  0  0  0  0
   -1.0493    2.7103   -1.2564 C   0  0  0  0  0  0  0  0  0  0  0  0
   -1.5228    3.8306   -0.3690 C   0  0  0  0  0  0  0  0  0  0  0  0
   -0.9815    5.1399   -0.9582 C   0  0  0  0  0  0  0  0  0  0  0  0
   -1.4644    5.2443   -2.4196 C   0  0  0  0  0  0  0  0  0  0  0  0
   -2.9984    5.2035   -2.4256 C   0  0  0  0  0  0  0  0  0  0  0  0
   -3.5330    6.3666   -1.5681 C   0  0  0  0  0  0  0  0  0  0  0  0
   -3.0422    7.7015   -2.1415 C   0  0  0  0  0  0  0  0  0  0  0  0
   -3.5187    7.8659   -3.5873 C   0  0  0  0  0  0  0  0  0  0  0  0
   -4.9769    7.8391   -3.6190 N   0  0  0  0  0  0  0  0  0  0  0  0
   -5.7752    8.9191   -3.6226 C   0  0  0  0  0  0  0  0  0  0  0  0
   -7.0801    8.4866   -3.6076 C   0  0  0  0  0  0  0  0  0  0  0  0
   -7.0794    7.1429   -3.5914 N   0  3  0  0  0  0  0  0  0  0  0  0
   -5.7953    6.7623   -3.6005 C   0  0  0  0  0  0  0  0  0  0  0  0
   -8.2398    6.2726   -3.5665 C   0  0  0  0  0  0  0  0  0  0  0  0
    0.4781   -1.1608    0.6448 C   0  0  0  0  0  0  0  0  0  0  0  0
   -0.5481   -0.3652   -0.0514 F   0  0  0  0  0  0  0  0  0  0  0  0
    0.0183   -2.1506   -0.2201 F   0  0  0  0  0  0  0  0  0  0  0  0
   -0.1241   -0.9553    1.8802 F   0  0  0  0  0  0  0  0  0  0  0  0
    2.9177   -0.7536    0.7190 S   0  0  0  0  0  0  0  0  0  0  0  0
    3.6038   -0.7024   -0.7473 O   0  0  0  0  0  0  0  0  0  0  0  0
    3.5130    0.7121    1.0156 O   0  0  0  0  0  0  0  0  0  0  0  0
    3.8159   -1.8340    1.4261 N   0  5  0  0  0  0  0  0  0  0  0  0
    5.5258   -1.5738    1.1508 S   0  0  0  0  0  0  0  0  0  0  0  0
    5.7940   -1.7008   -0.3584 O   0  0  0  0  0  0  0  0  0  0  0  0
    5.8363   -0.1506    1.6334 O   0  0  0  0  0  0  0  0  0  0  0  0
    5.9449   -2.8858    2.1436 C   0  0  0  0  0  0  0  0  0  0  0  0
    5.3841   -2.6462    3.3912 F   0  0  0  0  0  0  0  0  0  0  0  0
    5.3785   -4.0246    1.5841 F   0  0  0  0  0  0  0  0  0  0  0  0
    7.2989   -2.8959    2.1474 F   0  0  0  0  0  0  0  0  0  0  0  0
    0.9198    0.1794   -1.8212 H   0  0  0  0  0  0  0  0  0  0  0  0
    1.5381   -0.4919   -1.2099 H   0  0  0  0  0  0  0  0  0  0  0  0
    1.2684    0.5957   -0.1423 H   0  0  0  0  0  0  0  0  0  0  0  0
   -0.1846    1.5117    0.8600 H   0  0  0  0  0  0  0  0  0  0  0  0
    1.3002    1.3991    1.5543 H   0  0  0  0  0  0  0  0  0  0  0  0
    0.8357    3.5378    0.8314 H   0  0  0  0  0  0  0  0  0  0  0  0
    2.2674    2.8311    0.0409 H   0  0  0  0  0  0  0  0  0  0  0  0
    0.9571    3.7252   -1.8492 H   0  0  0  0  0  0  0  0  0  0  0  0
    0.8020    2.2602   -2.2022 H   0  0  0  0  0  0  0  0  0  0  0  0
   -1.4212    2.6638   -2.2933 H   0  0  0  0  0  0  0  0  0  0  0  0
   -1.5626    1.8089   -0.8578 H   0  0  0  0  0  0  0  0  0  0  0  0
   -2.6126    3.7860   -0.2738 H   0  0  0  0  0  0  0  0  0  0  0  0
   -1.2083    3.6906    0.6768 H   0  0  0  0  0  0  0  0  0  0  0  0
   -1.2579    5.9659   -0.3095 H   0  0  0  0  0  0  0  0  0  0  0  0
    0.1151    5.2323   -0.9144 H   0  0  0  0  0  0  0  0  0  0  0  0
   -1.0366    6.1343   -2.8906 H   0  0  0  0  0  0  0  0  0  0  0  0
   -1.0712    4.4630   -3.0962 H   0  0  0  0  0  0  0  0  0  0  0  0
   -3.3479    5.2136   -3.4634 H   0  0  0  0  0  0  0  0  0  0  0  0
   -3.4225    4.2472   -2.0678 H   0  0  0  0  0  0  0  0  0  0  0  0
   -4.6259    6.3298   -1.5045 H   0  0  0  0  0  0  0  0  0  0  0  0
   -3.2466    6.2803   -0.5051 H   0  0  0  0  0  0  0  0  0  0  0  0
   -3.4140    8.5307   -1.5155 H   0  0  0  0  0  0  0  0  0  0  0  0
   -1.9373    7.7898   -2.0991 H   0  0  0  0  0  0  0  0  0  0  0  0
   -3.1382    8.8282   -3.9722 H   0  0  0  0  0  0  0  0  0  0  0  0
   -3.1095    7.1029   -4.2808 H   0  0  0  0  0  0  0  0  0  0  0  0
   -5.4331    9.9431   -3.6176 H   0  0  0  0  0  0  0  0  0  0  0  0
   -7.9632    9.1038   -3.6015 H   0  0  0  0  0  0  0  0  0  0  0  0
   -5.4798    5.7258   -3.5787 H   0  0  0  0  0  0  0  0  0  0  0  0
   -8.2219    5.6180   -4.4617 H   0  0  0  0  0  0  0  0  0  0  0  0
   -8.2237    5.6515   -2.6461 H   0  0  0  0  0  0  0  0  0  0  0  0
   -9.1640    6.8858   -3.5782 H   0  0  0  0  0  0  0  0  0  0  0  0
  1  2  1  0  0  0  0
  1 34  1  0  0  0  0
  1 35  1  0  0  0  0
  1 36  1  0  0  0  0
  2  3  1  0  0  0  0
  2 37  1  0  0  0  0
  2 38  1  0  0  0  0
  3  4  1  0  0  0  0
  3 39  1  0  0  0  0
  3 40  1  0  0  0  0
  4  5  1  0  0  0  0
  4 41  1  0  0  0  0
  4 42  1  0  0  0  0
  5  6  1  0  0  0  0
  5 43  1  0  0  0  0
  5 44  1  0  0  0  0
  6  7  1  0  0  0  0
  6 45  1  0  0  0  0
  6 46  1  0  0  0  0
  7  8  1  0  0  0  0
  7 47  1  0  0  0  0
  7 48  1  0  0  0  0
  8  9  1  0  0  0  0
  8 49  1  0  0  0  0
  8 50  1  0  0  0  0
  9 10  1  0  0  0  0
  9 51  1  0  0  0  0
  9 52  1  0  0  0  0
 10 11  1  0  0  0  0
 10 53  1  0  0  0  0
 10 54  1  0  0  0  0
 11 12  1  0  0  0  0
 11 55  1  0  0  0  0
 11 56  1  0  0  0  0
 12 13  1  0  0  0  0
 12 57  1  0  0  0  0
 12 58  1  0  0  0  0
 13 14  1  0  0  0  0
 13 17  1  0  0  0  0
 14 15  2  0  0  0  0
 14 59  1  0  0  0  0
 15 16  1  0  0  0  0
 15 60  1  0  0  0  0
 16 17  2  0  0  0  0
 16 18  1  0  0  0  0
 17 61  1  0  0  0  0
 18 62  1  0  0  0  0
 18 63  1  0  0  0  0
 18 64  1  0  0  0  0
 19 20  1  0  0  0  0
 19 21  1  0  0  0  0
 19 22  1  0  0  0  0
 19 23  1  0  0  0  0
 23 24  2  0  0  0  0
 23 25  2  0  0  0  0
 23 26  1  0  0  0  0
 26 27  1  0  0  0  0
 27 28  2  0  0  0  0
 27 29  2  0  0  0  0
 27 30  1  0  0  0  0
 30 31  1  0  0  0  0
 30 32  1  0  0  0  0
 30 33  1  0  0  0  0
M  CHG  2  16   1  26  -1
M  END
$$$$

 OpenBabel05152416213D

144147  0  0  1  0  0  0  0  0999 V2000
   -3.8659   -8.0123   12.2971 C   0  0  0  0  0  0  0  0  0  0  0  0
   -4.9687   -7.1155   11.6833 C   0  0  2  0  0  0  0  0  0  0  0  0
   -4.4766   -6.6801   10.2988 C   0  0  0  0  0  0  0  0  0  0  0  0
   -3.2961   -5.7579   10.4958 C   0  0  0  0  0  0  0  0  0  0  0  0
   -3.6343   -4.6757   11.4836 C   0  0  1  0  0  0  0  0  0  0  0  0
   -2.4946   -3.7291   11.6789 C   0  0  0  0  0  0  0  0  0  0  0  0
   -2.0036   -3.1156   10.3779 C   0  0  1  0  0  0  0  0  0  0  0  0
   -3.1025   -2.3423    9.7337 C   0  0  0  0  0  0  0  0  0  0  0  0
   -2.8601   -1.1195    9.4353 C   0  0  0  0  0  0  0  0  0  0  0  0
   -3.5848   -0.6593    8.8382 C   0  0  0  0  0  0  0  0  0  0  0  0
   -3.1704    0.4815    7.8644 C   0  0  0  0  0  0  0  0  0  0  0  0
   -4.6504    1.9062    7.4085 C   0  0  0  0  0  0  0  0  0  0  0  0
   -5.2289    3.1406    7.6457 C   0  0  0  0  0  0  0  0  0  0  0  0
   -6.7699    4.1113    7.3695 C   0  0  2  0  0  0  0  0  0  0  0  0
   -6.9277    5.4545    8.1769 C   0  0  0  0  0  0  0  0  0  0  0  0
   -5.8293    6.6205    7.6794 C   0  0  2  0  0  0  0  0  0  0  0  0
   -4.8925    6.8487    6.5119 C   0  0  0  0  0  0  0  0  0  0  0  0
   -4.5901    8.0012    6.6188 O   0  0  0  0  0  0  0  0  0  0  0  0
   -3.9944    5.8913    5.6781 C   0  0  1  0  0  0  0  0  0  0  0  0
   -2.8841    4.9566    6.1667 C   0  0  1  0  0  0  0  0  0  0  0  0
   -2.8593    3.9604    7.0380 C   0  0  0  0  0  0  0  0  0  0  0  0
   -2.6950    2.8948    7.2541 C   0  0  0  0  0  0  0  0  0  0  0  0
   -3.2255    2.2859    8.9865 C   0  0  2  0  0  0  0  0  0  0  0  0
   -5.9566    0.3978    8.2933 C   0  0  0  0  0  0  0  0  0  0  0  0
   -5.4317   -0.3158    7.4902 O   0  0  0  0  0  0  0  0  0  0  0  0
   -6.9385    1.3706    7.8739 C   0  0  0  0  0  0  0  0  0  0  0  0
   -7.1145    2.1934    9.0732 C   0  0  2  0  0  0  0  0  0  0  0  0
   -6.5607    2.9718    9.3800 O   0  0  0  0  0  0  0  0  0  0  0  0
   -5.3890    2.4943    9.7027 C   0  0  0  0  0  0  0  0  0  0  0  0
   -4.6764    1.0607    9.5662 O   0  0  0  0  0  0  0  0  0  0  0  0
   -3.1271    4.5334   10.9181 C   0  0  2  0  0  0  0  0  0  0  0  0
   -2.5485    4.4075   11.5470 C   0  0  0  0  0  0  0  0  0  0  0  0
   -3.4453    4.6606   12.5173 C   0  0  0  0  0  0  0  0  0  0  0  0
   -4.5214    5.6808   12.4797 C   0  0  0  0  0  0  0  0  0  0  0  0
   -5.3646    5.9471   11.5090 C   0  0  0  0  0  0  0  0  0  0  0  0
   -4.5940    6.2395   10.8684 N   0  0  0  0  0  0  0  0  0  0  0  0
   -5.2322    5.8357    9.9089 C   0  0  0  0  0  0  0  0  0  0  0  0
   -4.2091    7.2779    8.6097 O   0  0  0  0  0  0  0  0  0  0  0  0
   -6.0486   -3.1000   11.4146 C   0  0  0  0  0  0  0  0  0  0  0  0
   -6.7982   -4.0357   10.2255 O   0  0  0  0  0  0  0  0  0  0  0  0
   -5.2100   -5.4275   12.8042 C   0  0  2  0  0  0  0  0  0  0  0  0
   -4.0581   -5.1612   12.7375 O   0  0  0  0  0  0  0  0  0  0  0  0
   -5.6882   -6.4143   13.8598 O   0  0  0  0  0  0  0  0  0  0  0  0
   -7.4739    1.5234   10.1298 C   0  0  2  0  0  0  0  0  0  0  0  0
   -8.3124    2.3022   10.9177 C   0  0  0  0  0  0  0  0  0  0  0  0
   -6.5071    1.1901   11.0112 C   0  0  0  0  0  0  0  0  0  0  0  0
   -6.1900    0.5587   12.1971 C   0  0  2  0  0  0  0  0  0  0  0  0
   -6.3485    1.5132   13.5300 C   0  0  0  0  0  0  0  0  0  0  0  0
   -5.1307    2.2827   14.2890 C   0  0  0  0  0  0  0  0  0  0  0  0
   -3.7857    1.3862   14.0652 C   0  0  2  0  0  0  0  0  0  0  0  0
   -3.6233    0.7429   12.7028 C   0  0  1  0  0  0  0  0  0  0  0  0
   -4.7580   -0.0873   12.2481 C   0  0  0  0  0  0  0  0  0  0  0  0
   -3.3718    1.6496   12.0838 O   0  0  0  0  0  0  0  0  0  0  0  0
   -4.4680    2.4621   12.1414 C   0  0  0  0  0  0  0  0  0  0  0  0
   -3.9859    0.4626   14.9136 O   0  0  0  0  0  0  0  0  0  0  0  0
   -3.1282    2.3760    9.9367 C   0  0  0  0  0  0  0  0  0  0  0  0
   -2.9492    4.1288    7.6333 C   0  0  0  0  0  0  0  0  0  0  0  0
   -2.5023    4.1054    5.1721 O   0  0  0  0  0  0  0  0  0  0  0  0
   -4.7891    5.0136    4.9181 O   0  0  0  0  0  0  0  0  0  0  0  0
   -5.1205    3.9307    5.5054 C   0  0  0  0  0  0  0  0  0  0  0  0
   -3.3940    5.6154    8.9311 C   0  0  0  0  0  0  0  0  0  0  0  0
   -7.7734    3.3902    6.7199 C   0  0  0  0  0  0  0  0  0  0  0  0
   -4.3767   -3.0487    9.3292 C   0  0  0  0  0  0  0  0  0  0  0  0
   -0.8727   -2.3009   10.6092 O   0  0  0  0  0  0  0  0  0  0  0  0
   -1.2057   -1.2626   11.5138 C   0  0  0  0  0  0  0  0  0  0  0  0
   -3.3224   -7.4100   13.0174 H   0  0  0  0  0  0  0  0  0  0  0  0
   -3.1664   -8.3603   11.5410 H   0  0  0  0  0  0  0  0  0  0  0  0
   -4.2898   -8.8685   12.8012 H   0  0  0  0  0  0  0  0  0  0  0  0
   -5.8371   -7.8049   11.5205 H   0  0  0  0  0  0  0  0  0  0  0  0
   -4.1986   -7.5156    9.6633 H   0  0  0  0  0  0  0  0  0  0  0  0
   -5.2621   -6.1646    9.7831 H   0  0  0  0  0  0  0  0  0  0  0  0
   -2.4633   -6.3026   10.9211 H   0  0  0  0  0  0  0  0  0  0  0  0
   -2.9892   -5.3587    9.5369 H   0  0  0  0  0  0  0  0  0  0  0  0
   -4.2762   -4.2378   11.1806 H   0  0  0  0  0  0  0  0  0  0  0  0
   -2.8095   -2.9467   12.3525 H   0  0  0  0  0  0  0  0  0  0  0  0
   -1.6951   -4.2914   12.1415 H   0  0  0  0  0  0  0  0  0  0  0  0
   -1.7017   -3.9225    9.7052 H   0  0  0  0  0  0  0  0  0  0  0  0
   -1.9721   -0.5521    9.5112 H   0  0  0  0  0  0  0  0  0  0  0  0
   -4.7908   -1.0196    9.1470 H   0  0  0  0  0  0  0  0  0  0  0  0
   -1.8130    1.2916    8.2235 H   0  0  0  0  0  0  0  0  0  0  0  0
   -4.9723    1.6563    7.2466 H   0  0  0  0  0  0  0  0  0  0  0  0
   -4.7685    3.4711    8.0307 H   0  0  0  0  0  0  0  0  0  0  0  0
   -6.7145    5.1551    5.7667 H   0  0  0  0  0  0  0  0  0  0  0  0
   -7.1798    5.8234    7.4905 H   0  0  0  0  0  0  0  0  0  0  0  0
   -6.9136    4.9657    8.9167 H   0  0  0  0  0  0  0  0  0  0  0  0
   -6.3677    7.3436    8.5576 H   0  0  0  0  0  0  0  0  0  0  0  0
   -3.8062    6.3911    4.9457 H   0  0  0  0  0  0  0  0  0  0  0  0
   -2.0721    5.6204    6.4058 H   0  0  0  0  0  0  0  0  0  0  0  0
   -2.9063    2.2281    6.4813 H   0  0  0  0  0  0  0  0  0  0  0  0
   -2.5952    1.1883    9.7957 H   0  0  0  0  0  0  0  0  0  0  0  0
   -6.2912    2.0005    6.3835 H   0  0  0  0  0  0  0  0  0  0  0  0
   -7.0278    0.7490    7.4306 H   0  0  0  0  0  0  0  0  0  0  0  0
   -7.8049    2.9448    8.9342 H   0  0  0  0  0  0  0  0  0  0  0  0
   -2.1908    4.0520    9.6445 H   0  0  0  0  0  0  0  0  0  0  0  0
   -2.0149    3.5003   11.3701 H   0  0  0  0  0  0  0  0  0  0  0  0
   -2.0440    5.1521   11.2212 H   0  0  0  0  0  0  0  0  0  0  0  0
   -3.8731    4.1780   12.7184 H   0  0  0  0  0  0  0  0  0  0  0  0
   -3.0179    4.3491   13.3352 H   0  0  0  0  0  0  0  0  0  0  0  0
   -5.1580    5.6388   13.2660 H   0  0  0  0  0  0  0  0  0  0  0  0
   -3.8119    6.4862   12.5324 H   0  0  0  0  0  0  0  0  0  0  0  0
   -5.9167    4.8395   11.2577 H   0  0  0  0  0  0  0  0  0  0  0  0
   -6.0719    6.6301   11.4497 H   0  0  0  0  0  0  0  0  0  0  0  0
   -6.4846   -7.0398   13.7334 H   0  0  0  0  0  0  0  0  0  0  0  0
   -7.4847    0.6355    9.8311 H   0  0  0  0  0  0  0  0  0  0  0  0
   -8.1416    2.0491   11.8989 H   0  0  0  0  0  0  0  0  0  0  0  0
   -8.1893    3.4075   10.8150 H   0  0  0  0  0  0  0  0  0  0  0  0
   -9.1898    1.9792   10.5431 H   0  0  0  0  0  0  0  0  0  0  0  0
   -5.8464    0.7719   10.7385 H   0  0  0  0  0  0  0  0  0  0  0  0
   -6.4565    2.9332   11.2529 H   0  0  0  0  0  0  0  0  0  0  0  0
   -6.9962    0.2628   11.9837 H   0  0  0  0  0  0  0  0  0  0  0  0
   -7.0951    2.2377   13.3727 H   0  0  0  0  0  0  0  0  0  0  0  0
   -6.4759    0.8241   14.2056 H   0  0  0  0  0  0  0  0  0  0  0  0
   -4.9619    3.3337   13.8925 H   0  0  0  0  0  0  0  0  0  0  0  0
   -5.1937    2.8703   14.8683 H   0  0  0  0  0  0  0  0  0  0  0  0
   -2.9099    2.0356   14.1256 H   0  0  0  0  0  0  0  0  0  0  0  0
   -2.7612    0.2002   12.6890 H   0  0  0  0  0  0  0  0  0  0  0  0
   -4.9038   -0.7806   12.9681 H   0  0  0  0  0  0  0  0  0  0  0  0
   -4.5167   -0.4899   11.2841 H   0  0  0  0  0  0  0  0  0  0  0  0
   -5.0892    2.2198   12.0115 H   0  0  0  0  0  0  0  0  0  0  0  0
   -5.0698    2.8407   12.1640 H   0  0  0  0  0  0  0  0  0  0  0  0
   -4.7295    3.4933   11.3304 H   0  0  0  0  0  0  0  0  0  0  0  0
   -3.7774    1.0207   15.6951 H   0  0  0  0  0  0  0  0  0  0  0  0
   -3.7800    2.2535   10.4516 H   0  0  0  0  0  0  0  0  0  0  0  0
   -3.1882    2.6529   10.4129 H   0  0  0  0  0  0  0  0  0  0  0  0
   -5.4624    4.2424    9.5351 H   0  0  0  0  0  0  0  0  0  0  0  0
   -1.5780    5.4939    9.1380 H   0  0  0  0  0  0  0  0  0  0  0  0
   -4.8708    5.0541    7.9793 H   0  0  0  0  0  0  0  0  0  0  0  0
   -4.0705    3.8178    9.5551 H   0  0  0  0  0  0  0  0  0  0  0  0
   -3.2017    3.4470    4.9272 H   0  0  0  0  0  0  0  0  0  0  0  0
   -4.6687    3.7735    5.9629 H   0  0  0  0  0  0  0  0  0  0  0  0
   -5.2781    4.7601    6.4479 H   0  0  0  0  0  0  0  0  0  0  0  0
   -5.9498    3.5619    5.5736 H   0  0  0  0  0  0  0  0  0  0  0  0
   -3.3905    5.6000    9.4653 H   0  0  0  0  0  0  0  0  0  0  0  0
   -3.6713    5.1787    9.0691 H   0  0  0  0  0  0  0  0  0  0  0  0
   -2.7055    6.0560    8.0247 H   0  0  0  0  0  0  0  0  0  0  0  0
   -7.7919    3.9424    6.2065 H   0  0  0  0  0  0  0  0  0  0  0  0
   -7.8116    2.3520    6.0376 H   0  0  0  0  0  0  0  0  0  0  0  0
   -7.5984    3.1949    7.2579 H   0  0  0  0  0  0  0  0  0  0  0  0
   -4.2479   -3.7954    8.6608 H   0  0  0  0  0  0  0  0  0  0  0  0
   -4.9445   -3.1605    9.9460 H   0  0  0  0  0  0  0  0  0  0  0  0
   -5.1526   -2.6752    8.8975 H   0  0  0  0  0  0  0  0  0  0  0  0
   -2.0039   -0.6656   11.2758 H   0  0  0  0  0  0  0  0  0  0  0  0
   -1.5589   -1.6189   12.4285 H   0  0  0  0  0  0  0  0  0  0  0  0
   -0.3933   -0.6023   11.6591 H   0  0  0  0  0  0  0  0  0  0  0  0
  1  2  1  0  0  0  0
  1 66  1  0  0  0  0
  1 67  1  0  0  0  0
  1 68  1  0  0  0  0
  2  3  1  0  0  0  0
  2 41  1  0  0  0  0
  2 69  1  6  0  0  0
  3  4  1  0  0  0  0
  3 70  1  0  0  0  0
  3 71  1  0  0  0  0
  4  5  1  0  0  0  0
  4 72  1  0  0  0  0
  4 73  1  0  0  0  0
  5  6  1  0  0  0  0
  5 42  1  0  0  0  0
  5 74  1  1  0  0  0
  6  7  1  0  0  0  0
  6 75  1  0  0  0  0
  6 76  1  0  0  0  0
  7  8  1  0  0  0  0
  7 64  1  0  0  0  0
  7 77  1  6  0  0  0
  8  9  2  0  0  0  0
  8 63  1  0  0  0  0
  9 10  1  0  0  0  0
  9 78  1  0  0  0  0
 10 11  2  0  0  0  0
 10 79  1  0  0  0  0
 11 12  1  0  0  0  0
 11 80  1  0  0  0  0
 12 13  2  0  0  0  0
 12 81  1  0  0  0  0
 13 14  1  0  0  0  0
 13 82  1  0  0  0  0
 14 15  1  0  0  0  0
 14 83  1  6  0  0  0
 14 62  1  0  0  0  0
 15 16  1  0  0  0  0
 15 84  1  0  0  0  0
 15 85  1  0  0  0  0
 16 17  1  0  0  0  0
 16 86  1  1  0  0  0
 16 61  1  0  0  0  0
 17 18  2  0  0  0  0
 17 19  1  0  0  0  0
 19 20  1  0  0  0  0
 19 59  1  0  0  0  0
 19 87  1  6  0  0  0
 20 21  1  0  0  0  0
 20 58  1  0  0  0  0
 20 88  1  1  0  0  0
 21 22  2  0  0  0  0
 21 57  1  0  0  0  0
 22 23  1  0  0  0  0
 22 89  1  0  0  0  0
 23 24  1  0  0  0  0
 23 90  1  6  0  0  0
 23 56  1  0  0  0  0
 24 25  2  0  0  0  0
 24 26  1  0  0  0  0
 26 27  1  0  0  0  0
 26 91  1  0  0  0  0
 26 92  1  0  0  0  0
 27 28  1  0  0  0  0
 27 44  1  0  0  0  0
 27 93  1  6  0  0  0
 28 29  1  0  0  0  0
 29 30  2  0  0  0  0
 29 31  1  0  0  0  0
 31 32  1  0  0  0  0
 31 36  1  0  0  0  0
 31 94  1  6  0  0  0
 32 33  1  0  0  0  0
 32 95  1  0  0  0  0
 32 96  1  0  0  0  0
 33 34  1  0  0  0  0
 33 97  1  0  0  0  0
 33 98  1  0  0  0  0
 34 35  1  0  0  0  0
 34 99  1  0  0  0  0
 34100  1  0  0  0  0
 35 36  1  0  0  0  0
 35101  1  0  0  0  0
 35102  1  0  0  0  0
 36 37  1  0  0  0  0
 37 38  2  0  0  0  0
 37 39  1  0  0  0  0
 39 40  2  0  0  0  0
 39 41  1  0  0  0  0
 41 42  1  0  0  0  0
 41 43  1  1  0  0  0
 43103  1  0  0  0  0
 44 46  1  0  0  0  0
 44104  1  6  0  0  0
 44 45  1  0  0  0  0
 45105  1  0  0  0  0
 45106  1  0  0  0  0
 45107  1  0  0  0  0
 46 47  1  0  0  0  0
 46108  1  0  0  0  0
 46109  1  0  0  0  0
 47 48  1  0  0  0  0
 47 52  1  0  0  0  0
 47110  1  1  0  0  0
 48 49  1  0  0  0  0
 48111  1  0  0  0  0
 48112  1  0  0  0  0
 49 50  1  0  0  0  0
 49113  1  0  0  0  0
 49114  1  0  0  0  0
 50 51  1  0  0  0  0
 50115  1  1  0  0  0
 50 55  1  0  0  0  0
 51 52  1  0  0  0  0
 51 53  1  0  0  0  0
 51116  1  1  0  0  0
 52117  1  0  0  0  0
 52118  1  0  0  0  0
 53 54  1  0  0  0  0
 54119  1  0  0  0  0
 54120  1  0  0  0  0
 54121  1  0  0  0  0
 55122  1  0  0  0  0
 56123  1  0  0  0  0
 56124  1  0  0  0  0
 56125  1  0  0  0  0
 57126  1  0  0  0  0
 57127  1  0  0  0  0
 57128  1  0  0  0  0
 58129  1  0  0  0  0
 59 60  1  0  0  0  0
 60130  1  0  0  0  0
 60131  1  0  0  0  0
 60132  1  0  0  0  0
 61133  1  0  0  0  0
 61134  1  0  0  0  0
 61135  1  0  0  0  0
 62136  1  0  0  0  0
 62137  1  0  0  0  0
 62138  1  0  0  0  0
 63139  1  0  0  0  0
 63140  1  0  0  0  0
 63141  1  0  0  0  0
 64 65  1  0  0  0  0
 65142  1  0  0  0  0
 65143  1  0  0  0  0
 65144  1  0  0  0  0
M  END
$$$$

 OpenBabel05152416213D

 77 79  0  0  0  0  0  0  0  0999 V2000
    1.5035   -0.0448    0.2621 C   0  0  0  0  0  0  0  0  0  0  0  0
    1.0447    1.4360    0.3438 C   0  0  0  0  0  0  0  0  0  0  0  0
    1.1998    2.2068   -0.8834 N   0  3  0  0  0  0  0  0  0  0  0  0
    0.2638    2.6928   -1.6533 C   0  0  0  0  0  0  0  0  0  0  0  0
    0.7281    3.4627   -2.8468 C   0  0  0  0  0  0  0  0  0  0  0  0
   -0.0934    3.9733   -3.7631 C   0  0  0  0  0  0  0  0  0  0  0  0
   -1.5913    3.8146   -3.7115 C   0  0  0  0  0  0  0  0  0  0  0  0
   -2.3874    4.4495   -4.6739 C   0  0  0  0  0  0  0  0  0  0  0  0
   -3.8651    4.4763   -4.6109 C   0  0  0  0  0  0  0  0  0  0  0  0
   -4.5412    4.9622   -3.4753 C   0  0  0  0  0  0  0  0  0  0  0  0
   -5.8676    4.5794   -3.2417 C   0  0  0  0  0  0  0  0  0  0  0  0
   -6.5693    3.7550   -4.1606 C   0  0  0  0  0  0  0  0  0  0  0  0
   -5.8828    3.3866   -5.3509 C   0  0  0  0  0  0  0  0  0  0  0  0
   -4.5582    3.7431   -5.5721 C   0  0  0  0  0  0  0  0  0  0  0  0
   -7.9105    3.2587   -3.8943 N   0  0  0  0  0  0  0  0  0  0  0  0
   -8.5728    3.4036   -2.5882 C   0  0  0  0  0  0  0  0  0  0  0  0
   -9.8189    4.2737   -2.7071 C   0  0  0  0  0  0  0  0  0  0  0  0
   -8.6468    2.5425   -4.9378 C   0  0  0  0  0  0  0  0  0  0  0  0
   -8.9381    3.4669   -6.1294 C   0  0  0  0  0  0  0  0  0  0  0  0
   -1.7613    5.1487   -5.7981 C   0  0  0  0  0  0  0  0  0  0  0  0
   -0.8472    4.4955   -6.6257 C   0  0  0  0  0  0  0  0  0  0  0  0
   -0.0675    5.2212   -7.5082 C   0  0  0  0  0  0  0  0  0  0  0  0
   -0.1866    6.6292   -7.5933 C   0  0  0  0  0  0  0  0  0  0  0  0
   -1.1963    7.2448   -6.8018 C   0  0  0  0  0  0  0  0  0  0  0  0
   -1.9806    6.5100   -5.9310 C   0  0  0  0  0  0  0  0  0  0  0  0
    0.7083    7.4268   -8.4062 N   0  0  0  0  0  0  0  0  0  0  0  0
    1.8866    6.8585   -9.0775 C   0  0  0  0  0  0  0  0  0  0  0  0
    1.7933    7.0380  -10.5858 C   0  0  0  0  0  0  0  0  0  0  0  0
    0.5109    8.8725   -8.5018 C   0  0  0  0  0  0  0  0  0  0  0  0
   -0.7884    9.2052   -9.2506 C   0  0  0  0  0  0  0  0  0  0  0  0
   -2.1194    2.9963   -2.5317 C   0  0  0  0  0  0  0  0  0  0  0  0
   -3.4780    2.6070   -2.4408 C   0  0  0  0  0  0  0  0  0  0  0  0
   -4.0408    2.0095   -1.3497 C   0  0  0  0  0  0  0  0  0  0  0  0
   -3.2459    1.6285   -0.3293 C   0  0  0  0  0  0  0  0  0  0  0  0
   -1.8890    1.8210   -0.4168 C   0  0  0  0  0  0  0  0  0  0  0  0
   -1.2553    2.5208   -1.4967 C   0  0  0  0  0  0  0  0  0  0  0  0
   -0.8499   -0.6068   -1.9467 Cl  0  5  0  0  0  0  0  0  0  0  0  0
    1.2655   -0.6877   -0.6067 H   0  0  0  0  0  0  0  0  0  0  0  0
    1.0901   -0.5945    1.1353 H   0  0  0  0  0  0  0  0  0  0  0  0
    2.6081   -0.0481    0.2566 H   0  0  0  0  0  0  0  0  0  0  0  0
    0.2390    1.7745    0.9702 H   0  0  0  0  0  0  0  0  0  0  0  0
    1.6668    1.8864    1.1262 H   0  0  0  0  0  0  0  0  0  0  0  0
    2.1899    2.3746   -1.1341 H   0  0  0  0  0  0  0  0  0  0  0  0
    1.7983    3.6323   -2.9838 H   0  0  0  0  0  0  0  0  0  0  0  0
    0.4019    4.5393   -4.5461 H   0  0  0  0  0  0  0  0  0  0  0  0
   -4.0071    5.4937   -2.6979 H   0  0  0  0  0  0  0  0  0  0  0  0
   -6.2682    4.8822   -2.2937 H   0  0  0  0  0  0  0  0  0  0  0  0
   -6.3150    2.7434   -6.1015 H   0  0  0  0  0  0  0  0  0  0  0  0
   -4.0489    3.3403   -6.4403 H   0  0  0  0  0  0  0  0  0  0  0  0
   -8.8418    2.4035   -2.1789 H   0  0  0  0  0  0  0  0  0  0  0  0
   -7.9431    3.8637   -1.8148 H   0  0  0  0  0  0  0  0  0  0  0  0
  -10.5760    3.8006   -3.3632 H   0  0  0  0  0  0  0  0  0  0  0  0
  -10.2730    4.4196   -1.7051 H   0  0  0  0  0  0  0  0  0  0  0  0
   -9.5355    5.2612   -3.1274 H   0  0  0  0  0  0  0  0  0  0  0  0
   -8.0872    1.6335   -5.2495 H   0  0  0  0  0  0  0  0  0  0  0  0
   -9.6243    2.1737   -4.5570 H   0  0  0  0  0  0  0  0  0  0  0  0
   -8.0346    3.8684   -6.6218 H   0  0  0  0  0  0  0  0  0  0  0  0
   -9.5010    2.9097   -6.9030 H   0  0  0  0  0  0  0  0  0  0  0  0
   -9.5163    4.3467   -5.7860 H   0  0  0  0  0  0  0  0  0  0  0  0
   -0.6905    3.4262   -6.5415 H   0  0  0  0  0  0  0  0  0  0  0  0
    0.6426    4.6343   -8.0556 H   0  0  0  0  0  0  0  0  0  0  0  0
   -1.3712    8.3065   -6.7755 H   0  0  0  0  0  0  0  0  0  0  0  0
   -2.6938    7.0214   -5.2948 H   0  0  0  0  0  0  0  0  0  0  0  0
    2.8123    7.3341   -8.6872 H   0  0  0  0  0  0  0  0  0  0  0  0
    2.0312    5.7844   -8.9085 H   0  0  0  0  0  0  0  0  0  0  0  0
    1.7977    8.1116  -10.8560 H   0  0  0  0  0  0  0  0  0  0  0  0
    2.6650    6.5531  -11.0720 H   0  0  0  0  0  0  0  0  0  0  0  0
    0.8581    6.5676  -10.9556 H   0  0  0  0  0  0  0  0  0  0  0  0
    0.5296    9.3246   -7.4857 H   0  0  0  0  0  0  0  0  0  0  0  0
    1.3454    9.3503   -9.0570 H   0  0  0  0  0  0  0  0  0  0  0  0
   -1.7059    8.8117   -8.7785 H   0  0  0  0  0  0  0  0  0  0  0  0
   -0.9056   10.3050   -9.3084 H   0  0  0  0  0  0  0  0  0  0  0  0
   -0.7563    8.7640  -10.2652 H   0  0  0  0  0  0  0  0  0  0  0  0
   -4.1851    2.7030   -3.1940 H   0  0  0  0  0  0  0  0  0  0  0  0
   -5.1016    1.8114   -1.3216 H   0  0  0  0  0  0  0  0  0  0  0  0
   -3.6714    1.1082    0.5142 H   0  0  0  0  0  0  0  0  0  0  0  0
   -1.4716    1.3317    0.3954 H   0  0  0  0  0  0  0  0  0  0  0  0
  1  2  1  0  0  0  0
  1 38  1  0  0  0  0
  1 39  1  0  0  0  0
  1 40  1  0  0  0  0
  2  3  1  0  0  0  0
  2 41  1  0  0  0  0
  2 42  1  0  0  0  0
  3  4  2  0  0  0  0
  3 43  1  0  0  0  0
  4  5  1  0  0  0  0
  4 36  1  0  0  0  0
  5  6  2  0  0  0  0
  5 44  1  0  0  0  0
  6  7  1  0  0  0  0
  6 45  1  0  0  0  0
  7  8  2  0  0  0  0
  7 31  1  0  0  0  0
  8  9  1  0  0  0  0
  8 20  1  0  0  0  0
  9 10  2  0  0  0  0
  9 14  1  0  0  0  0
 10 11  1  0  0  0  0
 10 46  1  0  0  0  0
 11 12  2  0  0  0  0
 11 47  1  0  0  0  0
 12 13  1  0  0  0  0
 12 15  1  0  0  0  0
 13 14  2  0  0  0  0
 13 48  1  0  0  0  0
 14 49  1  0  0  0  0
 15 16  1  0  0  0  0
 15 18  1  0  0  0  0
 16 17  1  0  0  0  0
 16 50  1  0  0  0  0
 16 51  1  0  0  0  0
 17 52  1  0  0  0  0
 17 53  1  0  0  0  0
 17 54  1  0  0  0  0
 18 19  1  0  0  0  0
 18 55  1  0  0  0  0
 18 56  1  0  0  0  0
 19 57  1  0  0  0  0
 19 58  1  0  0  0  0
 19 59  1  0  0  0  0
 20 21  2  0  0  0  0
 20 25  1  0  0  0  0
 21 22  1  0  0  0  0
 21 60  1  0  0  0  0
 22 23  2  0  0  0  0
 22 61  1  0  0  0  0
 23 24  1  0  0  0  0
 23 26  1  0  0  0  0
 24 25  2  0  0  0  0
 24 62  1  0  0  0  0
 25 63  1  0  0  0  0
 26 27  1  0  0  0  0
 26 29  1  0  0  0  0
 27 28  1  0  0  0  0
 27 64  1  0  0  0  0
 27 65  1  0  0  0  0
 28 66  1  0  0  0  0
 28 67  1  0  0  0  0
 28 68  1  0  0  0  0
 29 30  1  0  0  0  0
 29 69  1  0  0  0  0
 29 70  1  0  0  0  0
 30 71  1  0  0  0  0
 30 72  1  0  0  0  0
 30 73  1  0  0  0  0
 31 32  2  0  0  0  0
 31 36  1  0  0  0  0
 32 33  1  0  0  0  0
 32 74  1  0  0  0  0
 33 34  2  0  0  0  0
 33 75  1  0  0  0  0
 34 35  1  0  0  0  0
 34 76  1  0  0  0  0
 35 36  2  0  0  0  0
 35 77  1  0  0  0  0
M  CHG  2   3   1  37  -1
M  END
$$$$

 OpenBabel05152416213D

 39 41  0  0  0  0  0  0  0  0999 V2000
    1.4987    0.9580   -0.1379 C   0  0  0  0  0  0  0  0  0  0  0  0
    0.1168    0.9675   -0.2829 C   0  0  0  0  0  0  0  0  0  0  0  0
   -0.5607   -0.2235   -0.3908 C   0  0  0  0  0  0  0  0  0  0  0  0
    0.1546   -1.4249   -0.3518 C   0  0  0  0  0  0  0  0  0  0  0  0
    1.5539   -1.4418   -0.2404 C   0  0  0  0  0  0  0  0  0  0  0  0
    2.2967   -0.2720   -0.1266 C   0  0  0  0  0  0  0  0  0  0  0  0
    3.8651   -0.5283    0.1423 C   0  0  0  0  0  0  0  0  0  0  0  0
    4.1267   -0.9624    1.4428 O   0  0  0  0  0  0  0  0  0  0  0  0
    3.8297    0.0800    2.3837 C   0  0  0  0  0  0  0  0  0  0  0  0
    4.5820    1.4889    2.1526 C   0  0  0  0  0  0  0  0  0  0  0  0
    4.2980    2.4030    0.9677 N   0  0  0  0  0  0  0  0  0  0  0  0
    3.9869    2.2224   -0.3643 C   0  0  0  0  0  0  0  0  0  0  0  0
    3.6525    3.3478   -0.9649 C   0  0  0  0  0  0  0  0  0  0  0  0
    3.8606    4.3574   -0.1099 N   0  0  0  0  0  0  0  0  0  0  0  0
    4.2834    3.7665    1.0266 C   0  0  0  0  0  0  0  0  0  0  0  0
    2.3158    0.1136    2.6323 C   0  0  0  0  0  0  0  0  0  0  0  0
    1.5056    1.2897    2.7249 C   0  0  0  0  0  0  0  0  0  0  0  0
    0.1258    1.1763    2.7339 C   0  0  0  0  0  0  0  0  0  0  0  0
   -0.5008   -0.0554    2.7018 C   0  0  0  0  0  0  0  0  0  0  0  0
    0.2564   -1.2219    2.6492 C   0  0  0  0  0  0  0  0  0  0  0  0
    1.6520   -1.1466    2.6295 C   0  0  0  0  0  0  0  0  0  0  0  0
   -2.2482   -0.0979    2.6976 Cl  0  0  0  0  0  0  0  0  0  0  0  0
    1.9985    2.9725    2.7657 Cl  0  0  0  0  0  0  0  0  0  0  0  0
   -2.3105   -0.1875   -0.4981 Cl  0  0  0  0  0  0  0  0  0  0  0  0
    1.7879    1.9688    0.0383 H   0  0  0  0  0  0  0  0  0  0  0  0
   -0.4317    1.9136   -0.2462 H   0  0  0  0  0  0  0  0  0  0  0  0
   -0.3734   -2.3581   -0.3612 H   0  0  0  0  0  0  0  0  0  0  0  0
    2.0816   -2.3795   -0.1739 H   0  0  0  0  0  0  0  0  0  0  0  0
    4.2554   -1.1855   -0.6645 H   0  0  0  0  0  0  0  0  0  0  0  0
    4.7746    0.0924    0.0109 H   0  0  0  0  0  0  0  0  0  0  0  0
    4.2421   -0.3330    3.3376 H   0  0  0  0  0  0  0  0  0  0  0  0
    4.3116    2.0247    3.0958 H   0  0  0  0  0  0  0  0  0  0  0  0
    5.6743    1.3871    2.3016 H   0  0  0  0  0  0  0  0  0  0  0  0
    3.8272    1.4066   -1.0206 H   0  0  0  0  0  0  0  0  0  0  0  0
    3.2318    3.3384   -1.9703 H   0  0  0  0  0  0  0  0  0  0  0  0
    4.5309    4.3302    1.9132 H   0  0  0  0  0  0  0  0  0  0  0  0
   -0.4689    2.0780    2.7174 H   0  0  0  0  0  0  0  0  0  0  0  0
   -0.2389   -2.1811    2.5609 H   0  0  0  0  0  0  0  0  0  0  0  0
    2.2051   -2.0783    2.5139 H   0  0  0  0  0  0  0  0  0  0  0  0
  1  2  2  0  0  0  0
  1  6  1  0  0  0  0
  1 25  1  0  0  0  0
  2  3  1  0  0  0  0
  2 26  1  0  0  0  0
  3  4  2  0  0  0  0
  3 24  1  0  0  0  0
  4  5  1  0  0  0  0
  4 27  1  0  0  0  0
  5  6  2  0  0  0  0
  5 28  1  0  0  0  0
  6  7  1  0  0  0  0
  7  8  1  0  0  0  0
  7 29  1  0  0  0  0
  7 30  1  0  0  0  0
  8  9  1  0  0  0  0
  9 10  1  0  0  0  0
  9 16  1  0  0  0  0
  9 31  1  0  0  0  0
 10 11  1  0  0  0  0
 10 32  1  0  0  0  0
 10 33  1  0  0  0  0
 11 12  1  0  0  0  0
 11 15  1  0  0  0  0
 12 13  2  0  0  0  0
 12 34  1  0  0  0  0
 13 14  1  0  0  0  0
 13 35  1  0  0  0  0
 14 15  2  0  0  0  0
 15 36  1  0  0  0  0
 16 17  2  0  0  0  0
 16 21  1  0  0  0  0
 17 18  1  0  0  0  0
 17 23  1  0  0  0  0
 18 19  2  0  0  0  0
 18 37  1  0  0  0  0
 19 20  1  0  0  0  0
 19 22  1  0  0  0  0
 20 21  2  0  0  0  0
 20 38  1  0  0  0  0
 21 39  1  0  0  0  0
M  END
$$$$

 OpenBabel05152416213D

 41 43  0  0  0  0  0  0  0  0999 V2000
    1.4572   -0.2756    0.0233 C   0  0  0  0  0  0  0  0  0  0  0  0
    0.9627    1.0193   -0.0494 C   0  0  0  0  0  0  0  0  0  0  0  0
   -0.4009    1.2249   -0.1045 C   0  0  0  0  0  0  0  0  0  0  0  0
   -1.3148    0.1376   -0.0643 C   0  0  0  0  0  0  0  0  0  0  0  0
   -0.7931   -1.1608    0.0122 C   0  0  0  0  0  0  0  0  0  0  0  0
    0.5804   -1.3619    0.0461 C   0  0  0  0  0  0  0  0  0  0  0  0
   -2.8178    0.3720   -0.1815 C   0  0  0  0  0  0  0  0  0  0  0  0
   -3.4001    1.2523    1.0071 C   0  0  0  0  0  0  0  0  0  0  0  0
   -2.8529    2.7110    1.2109 C   0  0  0  0  0  0  0  0  0  0  0  0
   -3.0800    3.6566    0.0167 C   0  0  0  0  0  0  0  0  0  0  0  0
   -2.3357    4.8271   -0.1688 C   0  0  0  0  0  0  0  0  0  0  0  0
   -2.5001    5.5848   -1.3485 C   0  0  0  0  0  0  0  0  0  0  0  0
   -3.2729    5.0876   -2.4078 C   0  0  0  0  0  0  0  0  0  0  0  0
   -4.0156    3.9384   -2.2205 C   0  0  0  0  0  0  0  0  0  0  0  0
   -4.0239    3.3402   -0.9667 C   0  0  0  0  0  0  0  0  0  0  0  0
   -3.3604    5.9140   -3.9516 Cl  0  0  0  0  0  0  0  0  0  0  0  0
   -2.9445    0.9731   -1.6043 C   0  0  0  0  0  0  0  0  0  0  0  0
   -2.4574    0.2495   -2.7233 N   0  0  0  0  0  0  0  0  0  0  0  0
   -1.9574    0.8174   -3.8332 C   0  0  0  0  0  0  0  0  0  0  0  0
   -1.8106   -0.1143   -4.7844 N   0  0  0  0  0  0  0  0  0  0  0  0
   -2.2694   -1.2389   -4.1851 C   0  0  0  0  0  0  0  0  0  0  0  0
   -2.6926   -1.0185   -2.9410 N   0  0  0  0  0  0  0  0  0  0  0  0
   -3.6089   -0.8901   -0.2353 C   0  0  0  0  0  0  0  0  0  0  0  0
   -4.1941   -1.8858   -0.3292 N   0  0  0  0  0  0  0  0  0  0  0  0
    2.5207   -0.4345    0.0460 H   0  0  0  0  0  0  0  0  0  0  0  0
    1.6239    1.8760   -0.0858 H   0  0  0  0  0  0  0  0  0  0  0  0
   -0.7011    2.2533   -0.2092 H   0  0  0  0  0  0  0  0  0  0  0  0
   -1.4390   -2.0264    0.0175 H   0  0  0  0  0  0  0  0  0  0  0  0
    0.9576   -2.3687    0.0772 H   0  0  0  0  0  0  0  0  0  0  0  0
   -4.5033    1.3235    0.9212 H   0  0  0  0  0  0  0  0  0  0  0  0
   -3.2202    0.6854    1.9486 H   0  0  0  0  0  0  0  0  0  0  0  0
   -3.2681    3.1909    2.1077 H   0  0  0  0  0  0  0  0  0  0  0  0
   -1.7849    2.6045    1.4946 H   0  0  0  0  0  0  0  0  0  0  0  0
   -1.6384    5.1442    0.5928 H   0  0  0  0  0  0  0  0  0  0  0  0
   -1.9957    6.5271   -1.4665 H   0  0  0  0  0  0  0  0  0  0  0  0
   -4.5955    3.4967   -3.0298 H   0  0  0  0  0  0  0  0  0  0  0  0
   -4.6848    2.5277   -0.8068 H   0  0  0  0  0  0  0  0  0  0  0  0
   -4.0179    1.0300   -1.8666 H   0  0  0  0  0  0  0  0  0  0  0  0
   -2.3434    1.8976   -1.6362 H   0  0  0  0  0  0  0  0  0  0  0  0
   -1.7655    1.8871   -3.9614 H   0  0  0  0  0  0  0  0  0  0  0  0
   -2.3312   -2.2055   -4.6325 H   0  0  0  0  0  0  0  0  0  0  0  0
  1  2  2  0  0  0  0
  1  6  1  0  0  0  0
  1 25  1  0  0  0  0
  2  3  1  0  0  0  0
  2 26  1  0  0  0  0
  3  4  2  0  0  0  0
  3 27  1  0  0  0  0
  4  5  1  0  0  0  0
  4  7  1  0  0  0  0
  5  6  2  0  0  0  0
  5 28  1  0  0  0  0
  6 29  1  0  0  0  0
  7  8  1  0  0  0  0
  7 17  1  0  0  0  0
  7 23  1  0  0  0  0
  8  9  1  0  0  0  0
  8 30  1  0  0  0  0
  8 31  1  0  0  0  0
  9 10  1  0  0  0  0
  9 32  1  0  0  0  0
  9 33  1  0  0  0  0
 10 11  2  0  0  0  0
 10 15  1  0  0  0  0
 11 12  1  0  0  0  0
 11 34  1  0  0  0  0
 12 13  2  0  0  0  0
 12 35  1  0  0  0  0
 13 14  1  0  0  0  0
 13 16  1  0  0  0  0
 14 15  2  0  0  0  0
 14 36  1  0  0  0  0
 15 37  1  0  0  0  0
 17 18  1  0  0  0  0
 17 38  1  0  0  0  0
 17 39  1  0  0  0  0
 18 19  1  0  0  0  0
 18 22  1  0  0  0  0
 19 20  2  0  0  0  0
 19 40  1  0  0  0  0
 20 21  1  0  0  0  0
 21 22  2  0  0  0  0
 21 41  1  0  0  0  0
 23 24  3  0  0  0  0
M  END
$$$$

 OpenBabel05152416213D

 78 82  0  0  1  0  0  0  0  0999 V2000
   -0.0909    0.1357    0.7761 C   0  0  0  0  0  0  0  0  0  0  0  0
    0.4563    1.5566    0.6274 C   0  0  0  0  0  0  0  0  0  0  0  0
    1.1392    1.7791   -0.6787 C   0  0  0  0  0  0  0  0  0  0  0  0
   -0.7825    2.5283    0.6802 C   0  0  0  0  0  0  0  0  0  0  0  0
   -1.5432    2.3836    1.9578 C   0  0  0  0  0  0  0  0  0  0  0  0
   -0.6203    2.7418    3.0633 C   0  0  0  0  0  0  0  0  0  0  0  0
   -0.0848    4.2163    3.1310 C   0  0  1  0  0  0  0  0  0  0  0  0
   -1.4285    5.1068    2.8781 C   0  0  0  0  0  0  0  0  0  0  0  0
   -2.6336    5.1003    3.8467 C   0  0  0  0  0  0  0  0  0  0  0  0
   -2.9897    6.0999    4.4559 O   0  0  0  0  0  0  0  0  0  0  0  0
   -3.3550    3.9759    3.9866 O   0  0  0  0  0  0  0  0  0  0  0  0
   -3.9288    3.6313    5.1565 C   0  0  0  0  0  0  0  0  0  0  0  0
    0.9296    4.4517    4.3903 C   0  0  0  0  0  0  0  0  0  0  0  0
    2.1171    4.6565    4.1557 O   0  0  0  0  0  0  0  0  0  0  0  0
    0.5584    4.5501    5.7319 O   0  0  0  0  0  0  0  0  0  0  0  0
   -0.7421    4.3897    6.1787 C   0  0  1  0  0  0  0  0  0  0  0  0
   -0.9650    3.4781    7.3199 C   0  0  1  0  0  0  0  0  0  0  0  0
   -0.3652    2.2045    7.1093 C   0  0  0  0  0  0  0  0  0  0  0  0
   -0.1431    1.7290    5.7631 C   0  0  0  0  0  0  0  0  0  0  0  0
   -0.5951    0.4070    5.4737 C   0  0  0  0  0  0  0  0  0  0  0  0
   -0.5315   -0.2524    6.5604 C   0  0  0  0  0  0  0  0  0  0  0  0
   -0.3937    0.0710    7.8052 C   0  0  0  0  0  0  0  0  0  0  0  0
   -0.4759    1.3613    8.1573 C   0  0  0  0  0  0  0  0  0  0  0  0
   -0.7689    1.6423    9.5878 C   0  0  0  0  0  0  0  0  0  0  0  0
   -1.0677    3.1071   10.0056 C   0  0  0  0  0  0  0  0  0  0  0  0
   -2.3490    3.6202    9.5023 N   0  0  0  0  0  0  0  0  0  0  0  0
   -2.4019    3.6982    8.0438 C   0  0  2  0  0  0  0  0  0  0  0  0
   -3.6353    2.6231    7.7342 C   0  0  0  0  0  0  0  0  0  0  0  0
   -4.2531    2.1033    8.9352 C   0  0  0  0  0  0  0  0  0  0  0  0
   -3.5244    2.8274   10.0081 C   0  0  0  0  0  0  0  0  0  0  0  0
   -2.4683    5.1901    7.5507 C   0  0  0  0  0  0  0  0  0  0  0  0
   -1.4723    5.5621    6.6707 C   0  0  0  0  0  0  0  0  0  0  0  0
   -1.2601    6.8228    6.1506 O   0  0  0  0  0  0  0  0  0  0  0  0
   -0.4779    7.0784    5.0142 C   0  0  0  0  0  0  0  0  0  0  0  0
   -0.6051   -1.5099    6.3234 O   0  0  0  0  0  0  0  0  0  0  0  0
   -1.1248   -1.7392    5.1852 C   0  0  0  0  0  0  0  0  0  0  0  0
   -0.9501   -0.4521    4.4973 O   0  0  0  0  0  0  0  0  0  0  0  0
    0.7465    4.4672    2.0198 O   0  0  0  0  0  0  0  0  0  0  0  0
    1.4822    1.6891    1.5971 O   0  0  0  0  0  0  0  0  0  0  0  0
   -0.8525   -0.0427   -0.0081 H   0  0  0  0  0  0  0  0  0  0  0  0
   -0.5631   -0.0392    1.7684 H   0  0  0  0  0  0  0  0  0  0  0  0
    0.7346   -0.5851    0.7372 H   0  0  0  0  0  0  0  0  0  0  0  0
    0.4208    1.6140   -1.4956 H   0  0  0  0  0  0  0  0  0  0  0  0
    1.5156    2.8310   -0.6870 H   0  0  0  0  0  0  0  0  0  0  0  0
    1.9968    1.0822   -0.7109 H   0  0  0  0  0  0  0  0  0  0  0  0
   -0.5279    3.5839    0.4973 H   0  0  0  0  0  0  0  0  0  0  0  0
   -1.5143    2.3238   -0.1195 H   0  0  0  0  0  0  0  0  0  0  0  0
   -2.4676    2.9694    2.0033 H   0  0  0  0  0  0  0  0  0  0  0  0
   -1.9741    1.3819    2.1253 H   0  0  0  0  0  0  0  0  0  0  0  0
   -1.3229    2.5238    3.8351 H   0  0  0  0  0  0  0  0  0  0  0  0
    0.1702    1.9810    3.1990 H   0  0  0  0  0  0  0  0  0  0  0  0
   -1.0669    6.0949    2.6172 H   0  0  0  0  0  0  0  0  0  0  0  0
   -1.9429    4.8947    1.9506 H   0  0  0  0  0  0  0  0  0  0  0  0
   -3.1215    3.6553    5.7637 H   0  0  0  0  0  0  0  0  0  0  0  0
   -4.3343    4.4452    5.8330 H   0  0  0  0  0  0  0  0  0  0  0  0
   -3.8908    2.5293    5.2851 H   0  0  0  0  0  0  0  0  0  0  0  0
   -1.2457    3.9699    5.3128 H   0  0  0  0  0  0  0  0  0  0  0  0
   -1.6735    2.9041    6.8282 H   0  0  0  0  0  0  0  0  0  0  0  0
    0.1548    2.4059    5.1151 H   0  0  0  0  0  0  0  0  0  0  0  0
   -0.3935   -0.7320    8.4444 H   0  0  0  0  0  0  0  0  0  0  0  0
    0.1344    1.2930   10.1005 H   0  0  0  0  0  0  0  0  0  0  0  0
   -1.6176    0.9817    9.8655 H   0  0  0  0  0  0  0  0  0  0  0  0
   -0.2448    3.7714    9.6664 H   0  0  0  0  0  0  0  0  0  0  0  0
   -1.1038    3.1852   11.1042 H   0  0  0  0  0  0  0  0  0  0  0  0
   -3.2839    1.6984    7.1788 H   0  0  0  0  0  0  0  0  0  0  0  0
   -4.5503    3.0111    7.2941 H   0  0  0  0  0  0  0  0  0  0  0  0
   -4.1195    0.9928    8.9153 H   0  0  0  0  0  0  0  0  0  0  0  0
   -5.3662    2.3124    8.9792 H   0  0  0  0  0  0  0  0  0  0  0  0
   -4.2803    3.5066   10.4369 H   0  0  0  0  0  0  0  0  0  0  0  0
   -3.2613    2.0124   10.6954 H   0  0  0  0  0  0  0  0  0  0  0  0
   -3.2138    5.8994    7.8442 H   0  0  0  0  0  0  0  0  0  0  0  0
    0.6028    6.8577    5.0024 H   0  0  0  0  0  0  0  0  0  0  0  0
   -0.5109    6.1921    4.5620 H   0  0  0  0  0  0  0  0  0  0  0  0
   -0.9480    7.6105    4.1526 H   0  0  0  0  0  0  0  0  0  0  0  0
   -1.8379   -2.1666    5.9506 H   0  0  0  0  0  0  0  0  0  0  0  0
   -0.5985   -2.6354    4.8714 H   0  0  0  0  0  0  0  0  0  0  0  0
    1.0213    5.4220    2.0023 H   0  0  0  0  0  0  0  0  0  0  0  0
    1.8387    2.6062    1.6303 H   0  0  0  0  0  0  0  0  0  0  0  0
  1  2  1  0  0  0  0
  1 40  1  0  0  0  0
  1 41  1  0  0  0  0
  1 42  1  0  0  0  0
  2  3  1  0  0  0  0
  2  4  1  0  0  0  0
  2 39  1  0  0  0  0
  3 43  1  0  0  0  0
  3 44  1  0  0  0  0
  3 45  1  0  0  0  0
  4  5  1  0  0  0  0
  4 46  1  0  0  0  0
  4 47  1  0  0  0  0
  5  6  1  0  0  0  0
  5 48  1  0  0  0  0
  5 49  1  0  0  0  0
  6  7  1  0  0  0  0
  6 50  1  0  0  0  0
  6 51  1  0  0  0  0
  7  8  1  0  0  0  0
  7 13  1  1  0  0  0
  7 38  1  0  0  0  0
  8  9  1  0  0  0  0
  8 52  1  0  0  0  0
  8 53  1  0  0  0  0
  9 10  2  0  0  0  0
  9 11  1  0  0  0  0
 11 12  1  0  0  0  0
 12 54  1  0  0  0  0
 12 55  1  0  0  0  0
 12 56  1  0  0  0  0
 13 14  2  0  0  0  0
 13 15  1  0  0  0  0
 16 17  1  0  0  0  0
 16 32  1  0  0  0  0
 16 57  1  6  0  0  0
 16 15  1  0  0  0  0
 17 18  1  0  0  0  0
 17 27  1  0  0  0  0
 17 58  1  6  0  0  0
 18 19  2  0  0  0  0
 18 23  1  0  0  0  0
 19 20  1  0  0  0  0
 19 59  1  0  0  0  0
 20 21  2  0  0  0  0
 20 37  1  0  0  0  0
 21 22  1  0  0  0  0
 21 35  1  0  0  0  0
 22 23  2  0  0  0  0
 22 60  1  0  0  0  0
 23 24  1  0  0  0  0
 24 25  1  0  0  0  0
 24 61  1  0  0  0  0
 24 62  1  0  0  0  0
 25 26  1  0  0  0  0
 25 63  1  0  0  0  0
 25 64  1  0  0  0  0
 26 27  1  0  0  0  0
 26 30  1  0  0  0  0
 27 28  1  0  0  0  0
 27 31  1  6  0  0  0
 28 29  1  0  0  0  0
 28 65  1  0  0  0  0
 28 66  1  0  0  0  0
 29 30  1  0  0  0  0
 29 67  1  0  0  0  0
 29 68  1  0  0  0  0
 30 69  1  0  0  0  0
 30 70  1  0  0  0  0
 31 32  2  0  0  0  0
 31 71  1  0  0  0  0
 32 33  1  0  0  0  0
 33 34  1  0  0  0  0
 34 72  1  0  0  0  0
 34 73  1  0  0  0  0
 34 74  1  0  0  0  0
 35 36  1  0  0  0  0
 36 37  1  0  0  0  0
 36 75  1  0  0  0  0
 36 76  1  0  0  0  0
 38 77  1  0  0  0  0
 39 78  1  0  0  0  0
M  END
$$$$

 OpenBabel05152416213D

122129  0  0  1  0  0  0  0  0999 V2000
   -0.2535    0.4939    0.8459 C   0  0  0  0  0  0  0  0  0  0  0  0
   -1.4552   -0.2391   -2.5422 C   0  0  2  0  0  0  0  0  0  0  0  0
   -1.3514   -0.7193   -2.7368 C   0  0  2  0  0  0  0  0  0  0  0  0
   -0.1035   -0.9717   -3.8277 C   0  0  2  0  0  0  0  0  0  0  0  0
   -0.1246    0.3210   -4.1678 C   0  0  0  0  0  0  0  0  0  0  0  0
   -0.5361    1.5523   -2.8525 C   0  0  1  0  0  0  0  0  0  0  0  0
   -1.5727    1.5906   -2.4029 O   0  0  0  0  0  0  0  0  0  0  0  0
    1.1603    1.8598   -1.3471 O   0  0  0  0  0  0  0  0  0  0  0  0
    1.3457    1.0030   -0.3891 C   0  0  2  0  0  0  0  0  0  0  0  0
    2.1307   -1.5409   -2.0489 C   0  0  2  0  0  0  0  0  0  0  0  0
   -1.8613   -2.4242   -3.1751 O   0  0  0  0  0  0  0  0  0  0  0  0
   -2.5941   -1.4285   -1.2082 C   0  0  2  0  0  0  0  0  0  0  0  0
   -2.5954   -0.7983   -0.7916 C   0  0  0  0  0  0  0  0  0  0  0  0
   -2.0169   -0.4054    0.1425 C   0  0  2  0  0  0  0  0  0  0  0  0
   -1.8864    1.3980    1.2262 O   0  0  0  0  0  0  0  0  0  0  0  0
   -1.7093   -3.9822   -0.4046 O   0  0  0  0  0  0  0  0  0  0  0  0
   -1.2131   -4.3007   -0.2944 C   0  0  2  0  0  0  0  0  0  0  0  0
    0.0447   -1.4646    1.6049 C   0  0  2  0  0  0  0  0  0  0  0  0
   -0.5198    0.4464   -1.0690 O   0  0  0  0  0  0  0  0  0  0  0  0
    0.9053    0.1026   -2.1197 C   0  0  2  0  0  0  0  0  0  0  0  0
    0.8080   -3.2266   -2.0138 C   0  0  0  0  0  0  0  0  0  0  0  0
    0.8348   -3.4890   -1.7422 C   0  0  2  0  0  0  0  0  0  0  0  0
    0.8389   -4.8338   -1.9813 O   0  0  0  0  0  0  0  0  0  0  0  0
    2.6956   -0.4610   -0.0824 O   0  0  0  0  0  0  0  0  0  0  0  0
    2.2098   -1.4984    0.4644 C   0  0  1  0  0  0  0  0  0  0  0  0
    1.7762   -2.4343    3.0217 C   0  0  0  0  0  0  0  0  0  0  0  0
   -1.2572   -1.4628    3.3119 C   0  0  0  0  0  0  0  0  0  0  0  0
   -1.1205   -2.9448    1.1459 C   0  0  1  0  0  0  0  0  0  0  0  0
   -0.2875   -2.0067   -0.3435 C   0  0  1  0  0  0  0  0  0  0  0  0
    1.5245   -1.8916   -0.1153 C   0  0  0  0  0  0  0  0  0  0  0  0
   -0.3974   -1.3610   -0.6073 C   0  0  0  0  0  0  0  0  0  0  0  0
   -2.9844    1.3887   -0.5148 C   0  0  0  0  0  0  0  0  0  0  0  0
   -3.9650   -0.3982   -2.9172 C   0  0  2  0  0  0  0  0  0  0  0  0
   -2.1082   -1.2447   -4.5228 C   0  0  2  0  0  0  0  0  0  0  0  0
   -0.5940   -3.8020   -3.6333 C   0  0  0  0  0  0  0  0  0  0  0  0
   -1.4572   -4.4032   -2.6566 C   0  0  2  0  0  0  0  0  0  0  0  0
   -3.5591   -3.4190   -0.6467 C   0  0  1  0  0  0  0  0  0  0  0  0
   -4.0786   -3.0173   -1.0391 C   0  0  2  0  0  0  0  0  0  0  0  0
   -4.5832   -4.1045   -2.3319 C   0  0  0  0  0  0  0  0  0  0  0  0
   -6.0135   -2.2491   -3.4715 C   0  0  0  0  0  0  0  0  0  0  0  0
   -3.8985   -4.3039   -0.8394 C   0  0  2  0  0  0  0  0  0  0  0  0
   -3.6341   -5.5440    0.3023 C   0  0  0  0  0  0  0  0  0  0  0  0
   -3.8214   -6.7582   -0.2632 C   0  0  0  0  0  0  0  0  0  0  0  0
   -4.2432   -7.5974    0.7719 C   0  0  0  0  0  0  0  0  0  0  0  0
   -4.5835   -8.7547    0.6497 O   0  0  0  0  0  0  0  0  0  0  0  0
   -4.3070   -6.9529    1.9492 O   0  0  0  0  0  0  0  0  0  0  0  0
   -3.9498   -5.6657    1.8181 C   0  0  0  0  0  0  0  0  0  0  0  0
   -4.7855   -1.9862   -0.5645 O   0  0  0  0  0  0  0  0  0  0  0  0
   -3.2620   -2.5590    0.5752 C   0  0  0  0  0  0  0  0  0  0  0  0
   -0.9412   -4.3653   -2.2568 O   0  0  0  0  0  0  0  0  0  0  0  0
   -2.1920   -3.9160    1.9633 C   0  0  0  0  0  0  0  0  0  0  0  0
    0.3300   -1.4293    1.9068 C   0  0  0  0  0  0  0  0  0  0  0  0
    0.9069   -3.9970    0.1974 C   0  0  0  0  0  0  0  0  0  0  0  0
   -0.0178   -2.1365   -4.8659 O   0  0  0  0  0  0  0  0  0  0  0  0
   -3.5872   -2.1087   -3.8528 O   0  0  0  0  0  0  0  0  0  0  0  0
   -3.8194   -2.5617   -3.6379 C   0  0  0  0  0  0  0  0  0  0  0  0
   -0.3101    0.2143    0.6249 H   0  0  0  0  0  0  0  0  0  0  0  0
   -0.0629    0.0662    0.6508 H   0  0  0  0  0  0  0  0  0  0  0  0
   -2.4986   -0.3944    1.8641 H   0  0  0  0  0  0  0  0  0  0  0  0
   -4.1611    0.0461   -1.2141 H   0  0  0  0  0  0  0  0  0  0  0  0
   -2.0365   -2.9566   -1.5670 H   0  0  0  0  0  0  0  0  0  0  0  0
    0.5301   -1.3272   -3.6980 H   0  0  0  0  0  0  0  0  0  0  0  0
    0.6384    0.2486   -4.0749 H   0  0  0  0  0  0  0  0  0  0  0  0
   -0.9208    0.4569   -4.3873 H   0  0  0  0  0  0  0  0  0  0  0  0
   -0.5625    1.9676   -3.0013 H   0  0  0  0  0  0  0  0  0  0  0  0
    1.1839    0.1741   -0.3749 H   0  0  0  0  0  0  0  0  0  0  0  0
    2.0792   -1.3917   -2.2028 H   0  0  0  0  0  0  0  0  0  0  0  0
   -2.8788   -1.7334   -2.0583 H   0  0  0  0  0  0  0  0  0  0  0  0
   -2.8212    0.4865   -1.9077 H   0  0  0  0  0  0  0  0  0  0  0  0
   -3.3469   -0.6497    0.0984 H   0  0  0  0  0  0  0  0  0  0  0  0
   -1.5657   -1.0720    0.8198 H   0  0  0  0  0  0  0  0  0  0  0  0
   -1.8910    0.9920    1.5825 H   0  0  0  0  0  0  0  0  0  0  0  0
   -0.8645   -4.8558    0.7293 H   0  0  0  0  0  0  0  0  0  0  0  0
   -3.0438   -1.6931    2.5243 H   0  0  0  0  0  0  0  0  0  0  0  0
    0.3192    0.0458   -1.9095 H   0  0  0  0  0  0  0  0  0  0  0  0
   -0.6014   -2.5043   -2.0208 H   0  0  0  0  0  0  0  0  0  0  0  0
    1.1623   -3.0688   -2.4101 H   0  0  0  0  0  0  0  0  0  0  0  0
    1.7795   -3.0761    1.2971 H   0  0  0  0  0  0  0  0  0  0  0  0
   -0.5406   -5.6888   -1.3923 H   0  0  0  0  0  0  0  0  0  0  0  0
    2.3677   -1.1274    1.1289 H   0  0  0  0  0  0  0  0  0  0  0  0
    1.1869   -2.2436    3.4742 H   0  0  0  0  0  0  0  0  0  0  0  0
    2.0186   -1.9533    2.5811 H   0  0  0  0  0  0  0  0  0  0  0  0
   -1.5512   -1.3498    2.8941 H   0  0  0  0  0  0  0  0  0  0  0  0
   -1.0745   -0.1932    2.5151 H   0  0  0  0  0  0  0  0  0  0  0  0
   -0.7050   -2.4746   -0.5100 H   0  0  0  0  0  0  0  0  0  0  0  0
    2.5511   -3.0236   -1.0467 H   0  0  0  0  0  0  0  0  0  0  0  0
    2.0441   -2.3647   -0.3288 H   0  0  0  0  0  0  0  0  0  0  0  0
   -0.5030    1.9957   -0.7056 H   0  0  0  0  0  0  0  0  0  0  0  0
   -0.0161   -1.1096   -0.6975 H   0  0  0  0  0  0  0  0  0  0  0  0
   -3.1798    1.0298   -0.2993 H   0  0  0  0  0  0  0  0  0  0  0  0
   -2.6549    1.2716   -0.3125 H   0  0  0  0  0  0  0  0  0  0  0  0
   -3.4923   -0.3907   -3.0285 H   0  0  0  0  0  0  0  0  0  0  0  0
   -1.7837   -1.1007   -4.6477 H   0  0  0  0  0  0  0  0  0  0  0  0
   -0.2767   -3.0640   -3.4499 H   0  0  0  0  0  0  0  0  0  0  0  0
    0.3613   -1.6362   -2.2123 H   0  0  0  0  0  0  0  0  0  0  0  0
   -1.5491   -4.6040   -2.2726 H   0  0  0  0  0  0  0  0  0  0  0  0
   -4.5921   -4.3052   -3.2692 H   0  0  0  0  0  0  0  0  0  0  0  0
   -3.1269   -3.6913   -2.4256 H   0  0  0  0  0  0  0  0  0  0  0  0
   -5.7368   -1.9394   -4.3394 H   0  0  0  0  0  0  0  0  0  0  0  0
   -5.4521   -1.5169   -4.2796 H   0  0  0  0  0  0  0  0  0  0  0  0
   -2.8815   -5.1905    0.1828 H   0  0  0  0  0  0  0  0  0  0  0  0
   -3.6310   -6.8826   -1.2817 H   0  0  0  0  0  0  0  0  0  0  0  0
   -4.6211   -4.8875    2.0806 H   0  0  0  0  0  0  0  0  0  0  0  0
   -3.0829   -5.5673    2.4337 H   0  0  0  0  0  0  0  0  0  0  0  0
   -4.5259   -1.5233   -1.0158 H   0  0  0  0  0  0  0  0  0  0  0  0
   -2.9102   -2.1340    0.7989 H   0  0  0  0  0  0  0  0  0  0  0  0
   -2.7417   -2.1909    1.0510 H   0  0  0  0  0  0  0  0  0  0  0  0
   -2.5174   -2.4699    0.2457 H   0  0  0  0  0  0  0  0  0  0  0  0
    0.5908   -5.6279   -0.4876 H   0  0  0  0  0  0  0  0  0  0  0  0
   -2.4205   -4.0615    1.3338 H   0  0  0  0  0  0  0  0  0  0  0  0
   -1.6405   -4.0693    2.2899 H   0  0  0  0  0  0  0  0  0  0  0  0
   -3.3073   -3.3844    2.2763 H   0  0  0  0  0  0  0  0  0  0  0  0
    0.5399   -0.6067    2.4568 H   0  0  0  0  0  0  0  0  0  0  0  0
   -0.0896   -2.6710    2.6097 H   0  0  0  0  0  0  0  0  0  0  0  0
    0.5769   -1.3413    1.5541 H   0  0  0  0  0  0  0  0  0  0  0  0
    0.4974   -3.9665   -0.0245 H   0  0  0  0  0  0  0  0  0  0  0  0
    1.7141   -4.0723   -0.0362 H   0  0  0  0  0  0  0  0  0  0  0  0
    0.4967   -3.6045    0.3186 H   0  0  0  0  0  0  0  0  0  0  0  0
    1.1152   -2.7911   -4.1658 H   0  0  0  0  0  0  0  0  0  0  0  0
   -3.0321   -3.9610   -3.9888 H   0  0  0  0  0  0  0  0  0  0  0  0
   -4.6365   -2.2047   -2.4666 H   0  0  0  0  0  0  0  0  0  0  0  0
   -4.0692   -2.7575   -3.9858 H   0  0  0  0  0  0  0  0  0  0  0  0
  1  2  1  0  0  0  0
  1 57  1  0  0  0  0
  1 58  1  0  0  0  0
  1 59  1  0  0  0  0
  2  3  1  0  0  0  0
  2  7  1  0  0  0  0
  2 60  1  1  0  0  0
  3  4  1  0  0  0  0
  3 61  1  1  0  0  0
  3 55  1  0  0  0  0
  4  5  1  0  0  0  0
  4 62  1  1  0  0  0
  4 54  1  0  0  0  0
  5  6  1  0  0  0  0
  5 63  1  0  0  0  0
  5 64  1  0  0  0  0
  6  7  1  0  0  0  0
  6  8  1  0  0  0  0
  6 65  1  6  0  0  0
  8  9  1  0  0  0  0
  9 10  1  0  0  0  0
  9 14  1  0  0  0  0
  9 66  1  1  0  0  0
 10 11  1  0  0  0  0
 10 67  1  6  0  0  0
 10 53  1  0  0  0  0
 11 12  1  0  0  0  0
 12 13  1  0  0  0  0
 12 68  1  6  0  0  0
 12 16  1  0  0  0  0
 13 14  1  0  0  0  0
 13 69  1  0  0  0  0
 13 70  1  0  0  0  0
 14 71  1  1  0  0  0
 14 15  1  0  0  0  0
 15 72  1  0  0  0  0
 16 17  1  0  0  0  0
 17 18  1  0  0  0  0
 17 22  1  0  0  0  0
 17 73  1  1  0  0  0
 18 19  1  0  0  0  0
 18 74  1  1  0  0  0
 18 52  1  0  0  0  0
 19 20  1  0  0  0  0
 20 21  1  0  0  0  0
 20 75  1  6  0  0  0
 20 24  1  0  0  0  0
 21 22  1  0  0  0  0
 21 76  1  0  0  0  0
 21 77  1  0  0  0  0
 22 78  1  1  0  0  0
 22 23  1  0  0  0  0
 23 79  1  0  0  0  0
 25 26  1  0  0  0  0
 25 30  1  0  0  0  0
 25 80  1  6  0  0  0
 25 24  1  0  0  0  0
 26 27  1  0  0  0  0
 26 81  1  0  0  0  0
 26 82  1  0  0  0  0
 27 28  1  0  0  0  0
 27 83  1  0  0  0  0
 27 84  1  0  0  0  0
 28 29  1  0  0  0  0
 28 34  1  0  0  0  0
 28 51  1  6  0  0  0
 29 30  1  0  0  0  0
 29 31  1  0  0  0  0
 29 85  1  1  0  0  0
 30 86  1  0  0  0  0
 30 87  1  0  0  0  0
 31 32  1  0  0  0  0
 31 88  1  0  0  0  0
 31 89  1  0  0  0  0
 32 33  1  0  0  0  0
 32 90  1  0  0  0  0
 32 91  1  0  0  0  0
 33 34  1  0  0  0  0
 33 38  1  0  0  0  0
 33 92  1  1  0  0  0
 34 35  1  0  0  0  0
 34 93  1  6  0  0  0
 35 36  1  0  0  0  0
 35 94  1  0  0  0  0
 35 95  1  0  0  0  0
 36 37  1  0  0  0  0
 36 96  1  6  0  0  0
 36 50  1  0  0  0  0
 37 38  1  0  0  0  0
 37 41  1  0  0  0  0
 37 49  1  1  0  0  0
 38 39  1  0  0  0  0
 38 48  1  1  0  0  0
 39 40  1  0  0  0  0
 39 97  1  0  0  0  0
 39 98  1  0  0  0  0
 40 41  1  0  0  0  0
 40 99  1  0  0  0  0
 40100  1  0  0  0  0
 41 42  1  0  0  0  0
 41101  1  6  0  0  0
 42 43  2  0  0  0  0
 42 47  1  0  0  0  0
 43 44  1  0  0  0  0
 43102  1  0  0  0  0
 44 45  2  0  0  0  0
 44 46  1  0  0  0  0
 46 47  1  0  0  0  0
 47103  1  0  0  0  0
 47104  1  0  0  0  0
 48105  1  0  0  0  0
 49106  1  0  0  0  0
 49107  1  0  0  0  0
 49108  1  0  0  0  0
 50109  1  0  0  0  0
 51110  1  0  0  0  0
 51111  1  0  0  0  0
 51112  1  0  0  0  0
 52113  1  0  0  0  0
 52114  1  0  0  0  0
 52115  1  0  0  0  0
 53116  1  0  0  0  0
 53117  1  0  0  0  0
 53118  1  0  0  0  0
 54119  1  0  0  0  0
 55 56  1  0  0  0  0
 56120  1  0  0  0  0
 56121  1  0  0  0  0
 56122  1  0  0  0  0
M  END
$$$$

 OpenBabel05152416213D

 85 90  0  0  1  0  0  0  0  0999 V2000
   -0.0749    4.6998   -2.5771 C   0  0  0  0  0  0  0  0  0  0  0  0
   -0.1334    3.4255   -2.5733 C   0  0  1  0  0  0  0  0  0  0  0  0
   -2.2124    2.9614   -1.7114 C   0  0  1  0  0  0  0  0  0  0  0  0
   -3.2365    1.1245   -2.2252 C   0  0  2  0  0  0  0  0  0  0  0  0
   -2.6168    0.3874   -4.3091 C   0  0  2  0  0  0  0  0  0  0  0  0
    0.3896    0.4659   -4.2526 C   0  0  1  0  0  0  0  0  0  0  0  0
    0.9085    2.4729   -3.9857 O   0  0  0  0  0  0  0  0  0  0  0  0
    0.8547   -0.4360   -3.4438 O   0  0  0  0  0  0  0  0  0  0  0  0
   -0.5021   -0.7873   -3.1362 C   0  0  1  0  0  0  0  0  0  0  0  0
   -2.6095   -1.9634   -4.9490 C   0  0  0  0  0  0  0  0  0  0  0  0
   -3.6714   -1.8667   -4.4040 C   0  0  2  0  0  0  0  0  0  0  0  0
   -2.0241   -2.1247   -4.0179 C   0  0  2  0  0  0  0  0  0  0  0  0
   -0.5129   -1.4939   -5.4063 C   0  0  2  0  0  0  0  0  0  0  0  0
   -0.8562    0.2730   -6.0839 C   0  0  1  0  0  0  0  0  0  0  0  0
   -1.0915    1.9958   -4.6147 C   0  0  0  0  0  0  0  0  0  0  0  0
   -1.2246    1.4826   -3.2138 C   0  0  0  0  0  0  0  0  0  0  0  0
   -1.7552   -0.9052   -2.6435 C   0  0  2  0  0  0  0  0  0  0  0  0
   -0.5971   -1.1832   -1.7937 C   0  0  0  0  0  0  0  0  0  0  0  0
   -2.8201   -1.3671   -1.7144 O   0  0  0  0  0  0  0  0  0  0  0  0
    0.3299    0.4255   -6.7949 C   0  0  1  0  0  0  0  0  0  0  0  0
    1.9499    0.3344   -6.1833 C   0  0  0  0  0  0  0  0  0  0  0  0
    2.7252    0.6100   -7.2541 C   0  0  0  0  0  0  0  0  0  0  0  0
    1.6273    0.1863   -8.3919 C   0  0  1  0  0  0  0  0  0  0  0  0
    0.3063   -0.4708   -7.8736 C   0  0  1  0  0  0  0  0  0  0  0  0
    0.5389   -1.9424   -7.3092 C   0  0  0  0  0  0  0  0  0  0  0  0
   -0.4692   -2.4147   -6.4077 C   0  0  1  0  0  0  0  0  0  0  0  0
   -0.2914   -3.7057   -5.8612 O   0  0  0  0  0  0  0  0  0  0  0  0
   -1.0950   -0.3693   -8.6794 C   0  0  0  0  0  0  0  0  0  0  0  0
    1.3044    1.4750   -9.2042 C   0  0  0  0  0  0  0  0  0  0  0  0
    1.1209    1.6409  -10.4907 C   0  0  0  0  0  0  0  0  0  0  0  0
    1.0932    3.1015  -10.6547 C   0  0  0  0  0  0  0  0  0  0  0  0
    1.0308    3.7089  -11.6901 O   0  0  0  0  0  0  0  0  0  0  0  0
    1.2846    3.7597   -9.5425 O   0  0  0  0  0  0  0  0  0  0  0  0
    1.2788    2.8700   -8.5843 C   0  0  0  0  0  0  0  0  0  0  0  0
   -0.0866    1.6540   -6.9918 O   0  0  0  0  0  0  0  0  0  0  0  0
   -1.8013   -3.4146   -3.1970 C   0  0  0  0  0  0  0  0  0  0  0  0
   -0.4654   -3.7046   -2.8607 O   0  0  0  0  0  0  0  0  0  0  0  0
   -4.7789   -1.9409   -3.7215 O   0  0  0  0  0  0  0  0  0  0  0  0
   -3.3111    0.9525   -5.4246 O   0  0  0  0  0  0  0  0  0  0  0  0
   -4.4476    0.8996   -2.0945 O   0  0  0  0  0  0  0  0  0  0  0  0
   -2.0569    2.6092   -0.3711 O   0  0  0  0  0  0  0  0  0  0  0  0
   -0.9047    4.6719   -3.3142 H   0  0  0  0  0  0  0  0  0  0  0  0
   -0.3919    4.6292   -1.4945 H   0  0  0  0  0  0  0  0  0  0  0  0
    0.9643    4.5576   -2.8995 H   0  0  0  0  0  0  0  0  0  0  0  0
    0.5260    2.9697   -1.6865 H   0  0  0  0  0  0  0  0  0  0  0  0
   -2.9903    3.4234   -2.3520 H   0  0  0  0  0  0  0  0  0  0  0  0
   -2.5087    0.6125   -1.3224 H   0  0  0  0  0  0  0  0  0  0  0  0
   -2.0479   -0.0840   -4.5609 H   0  0  0  0  0  0  0  0  0  0  0  0
    0.7415    1.0921   -4.7522 H   0  0  0  0  0  0  0  0  0  0  0  0
   -0.0158   -0.0233   -2.1444 H   0  0  0  0  0  0  0  0  0  0  0  0
   -3.4156   -2.2387   -5.9853 H   0  0  0  0  0  0  0  0  0  0  0  0
   -2.9723   -1.8837   -6.1694 H   0  0  0  0  0  0  0  0  0  0  0  0
   -4.1631   -0.9633   -4.9124 H   0  0  0  0  0  0  0  0  0  0  0  0
    0.4098   -1.8053   -4.9019 H   0  0  0  0  0  0  0  0  0  0  0  0
   -1.7472    0.2564   -6.6179 H   0  0  0  0  0  0  0  0  0  0  0  0
   -1.2443    3.0137   -5.0736 H   0  0  0  0  0  0  0  0  0  0  0  0
    0.0774    1.5544   -2.8200 H   0  0  0  0  0  0  0  0  0  0  0  0
   -2.1990    2.2414   -3.6983 H   0  0  0  0  0  0  0  0  0  0  0  0
   -1.4960    1.4570   -2.6412 H   0  0  0  0  0  0  0  0  0  0  0  0
    0.0674   -1.9690   -1.7629 H   0  0  0  0  0  0  0  0  0  0  0  0
   -0.7455   -0.7949   -0.6849 H   0  0  0  0  0  0  0  0  0  0  0  0
   -3.7947   -1.2633   -1.9242 H   0  0  0  0  0  0  0  0  0  0  0  0
    2.3601    1.1645   -5.3671 H   0  0  0  0  0  0  0  0  0  0  0  0
    2.0817   -0.6045   -5.5594 H   0  0  0  0  0  0  0  0  0  0  0  0
    3.6416    0.6832   -6.5382 H   0  0  0  0  0  0  0  0  0  0  0  0
    3.3278   -0.2172   -7.2583 H   0  0  0  0  0  0  0  0  0  0  0  0
    2.1061   -0.6328   -8.8761 H   0  0  0  0  0  0  0  0  0  0  0  0
    0.4143   -2.6572   -8.0712 H   0  0  0  0  0  0  0  0  0  0  0  0
    1.4475   -2.0711   -6.7247 H   0  0  0  0  0  0  0  0  0  0  0  0
   -1.3253   -2.2723   -6.9462 H   0  0  0  0  0  0  0  0  0  0  0  0
   -1.1754   -4.0210   -5.5576 H   0  0  0  0  0  0  0  0  0  0  0  0
   -2.0703   -0.7100   -8.1870 H   0  0  0  0  0  0  0  0  0  0  0  0
   -1.3124    0.7131   -8.8701 H   0  0  0  0  0  0  0  0  0  0  0  0
   -1.1592   -1.1074   -9.4388 H   0  0  0  0  0  0  0  0  0  0  0  0
    1.0909    0.8828  -11.2575 H   0  0  0  0  0  0  0  0  0  0  0  0
    2.1299    2.9207   -7.8785 H   0  0  0  0  0  0  0  0  0  0  0  0
    0.2758    3.2014   -8.2139 H   0  0  0  0  0  0  0  0  0  0  0  0
    0.6848    2.0790   -6.6280 H   0  0  0  0  0  0  0  0  0  0  0  0
   -2.6031   -3.4434   -2.4674 H   0  0  0  0  0  0  0  0  0  0  0  0
   -2.1898   -4.0169   -3.9097 H   0  0  0  0  0  0  0  0  0  0  0  0
    0.1893   -3.1365   -3.3645 H   0  0  0  0  0  0  0  0  0  0  0  0
   -4.5023   -2.7114   -3.2953 H   0  0  0  0  0  0  0  0  0  0  0  0
   -3.1309    1.9055   -5.5797 H   0  0  0  0  0  0  0  0  0  0  0  0
   -4.3539    0.6680   -3.0440 H   0  0  0  0  0  0  0  0  0  0  0  0
   -1.3094    1.9165   -0.3918 H   0  0  0  0  0  0  0  0  0  0  0  0
  1  2  1  0  0  0  0
  1 42  1  0  0  0  0
  1 43  1  0  0  0  0
  1 44  1  0  0  0  0
  2  3  1  0  0  0  0
  2  7  1  0  0  0  0
  2 45  1  1  0  0  0
  3  4  1  0  0  0  0
  3 41  1  0  0  0  0
  3 46  1  6  0  0  0
  4  5  1  0  0  0  0
  4 40  1  0  0  0  0
  4 47  1  1  0  0  0
  5  6  1  0  0  0  0
  5 39  1  0  0  0  0
  5 48  1  6  0  0  0
  6  7  1  0  0  0  0
  6  8  1  0  0  0  0
  6 49  1  6  0  0  0
  9 10  1  0  0  0  0
  9 18  1  0  0  0  0
  9 50  1  1  0  0  0
  9  8  1  0  0  0  0
 10 11  1  0  0  0  0
 10 51  1  0  0  0  0
 10 52  1  0  0  0  0
 11 12  1  0  0  0  0
 11 38  1  0  0  0  0
 11 53  1  1  0  0  0
 12 13  1  0  0  0  0
 12 17  1  0  0  0  0
 12 36  1  6  0  0  0
 13 14  1  0  0  0  0
 13 26  1  0  0  0  0
 13 54  1  1  0  0  0
 14 15  1  0  0  0  0
 14 20  1  0  0  0  0
 14 55  1  6  0  0  0
 15 16  1  0  0  0  0
 15 56  1  0  0  0  0
 15 57  1  0  0  0  0
 16 17  1  0  0  0  0
 16 58  1  0  0  0  0
 16 59  1  0  0  0  0
 17 18  1  0  0  0  0
 17 19  1  1  0  0  0
 18 60  1  0  0  0  0
 18 61  1  0  0  0  0
 19 62  1  0  0  0  0
 20 21  1  0  0  0  0
 20 24  1  0  0  0  0
 20 35  1  6  0  0  0
 21 22  1  0  0  0  0
 21 63  1  0  0  0  0
 21 64  1  0  0  0  0
 22 23  1  0  0  0  0
 22 65  1  0  0  0  0
 22 66  1  0  0  0  0
 23 24  1  0  0  0  0
 23 29  1  0  0  0  0
 23 67  1  6  0  0  0
 24 25  1  0  0  0  0
 24 28  1  6  0  0  0
 25 26  1  0  0  0  0
 25 68  1  0  0  0  0
 25 69  1  0  0  0  0
 26 70  1  6  0  0  0
 26 27  1  0  0  0  0
 27 71  1  0  0  0  0
 28 72  1  0  0  0  0
 28 73  1  0  0  0  0
 28 74  1  0  0  0  0
 29 30  2  0  0  0  0
 29 34  1  0  0  0  0
 30 31  1  0  0  0  0
 30 75  1  0  0  0  0
 31 32  2  0  0  0  0
 31 33  1  0  0  0  0
 33 34  1  0  0  0  0
 34 76  1  0  0  0  0
 34 77  1  0  0  0  0
 35 78  1  0  0  0  0
 36 37  1  0  0  0  0
 36 79  1  0  0  0  0
 36 80  1  0  0  0  0
 37 81  1  0  0  0  0
 38 82  1  0  0  0  0
 39 83  1  0  0  0  0
 40 84  1  0  0  0  0
 41 85  1  0  0  0  0
M  END
$$$$

 OpenBabel05152416213D

 55 54  0  0  0  0  0  0  0  0999 V2000
    1.3857    0.0611    0.0861 C   0  0  0  0  0  0  0  0  0  0  0  0
    0.8586   -1.3784   -0.2353 C   0  0  0  0  0  0  0  0  0  0  0  0
    1.2683   -2.3282    0.8880 C   0  0  0  0  0  0  0  0  0  0  0  0
    0.6292   -1.8880    2.2238 C   0  0  0  0  0  0  0  0  0  0  0  0
   -0.9185   -1.8947    2.1436 C   0  0  0  0  0  0  0  0  0  0  0  0
   -1.4286   -3.3171    1.8301 C   0  0  0  0  0  0  0  0  0  0  0  0
   -0.9292   -4.2921    2.9144 C   0  0  0  0  0  0  0  0  0  0  0  0
   -1.4489   -3.8356    4.2932 C   0  0  0  0  0  0  0  0  0  0  0  0
   -2.9945   -3.8201    4.2699 C   0  0  0  0  0  0  0  0  0  0  0  0
   -3.5208   -5.2336    3.9264 C   0  0  0  0  0  0  0  0  0  0  0  0
   -2.9959   -6.2300    4.9604 C   0  0  0  0  0  0  0  0  0  0  0  0
   -3.4485   -5.7945    6.3481 C   0  0  0  0  0  0  0  0  0  0  0  0
   -5.0083   -5.7798    6.4649 C   0  0  0  0  0  0  0  0  0  0  0  0
   -5.5907   -7.1759    6.2367 C   0  0  0  0  0  0  0  0  0  0  0  0
   -5.1380   -8.1525    7.2498 N   0  3  0  0  0  0  0  0  0  0  0  0
   -4.3393   -7.8031    8.3365 C   0  0  0  0  0  0  0  0  0  0  0  0
   -3.8283   -8.7621    9.1819 C   0  0  0  0  0  0  0  0  0  0  0  0
   -4.2144  -10.0756    9.0244 C   0  0  0  0  0  0  0  0  0  0  0  0
   -5.1020  -10.4210    8.0007 C   0  0  0  0  0  0  0  0  0  0  0  0
   -5.5204   -9.4384    7.0992 C   0  0  0  0  0  0  0  0  0  0  0  0
   -1.4818    0.5219   -1.5508 Br  0  5  0  0  0  0  0  0  0  0  0  0
    0.9555    0.4726    1.0201 H   0  0  0  0  0  0  0  0  0  0  0  0
    1.2146    0.8912   -0.6281 H   0  0  0  0  0  0  0  0  0  0  0  0
    2.4850   -0.0124    0.1804 H   0  0  0  0  0  0  0  0  0  0  0  0
   -0.2371   -1.4978   -0.3536 H   0  0  0  0  0  0  0  0  0  0  0  0
    1.2666   -1.7426   -1.1961 H   0  0  0  0  0  0  0  0  0  0  0  0
    0.9739   -3.3712    0.6334 H   0  0  0  0  0  0  0  0  0  0  0  0
    2.3709   -2.3427    0.9667 H   0  0  0  0  0  0  0  0  0  0  0  0
    1.0125   -2.5252    3.0397 H   0  0  0  0  0  0  0  0  0  0  0  0
    0.9744   -0.8954    2.5414 H   0  0  0  0  0  0  0  0  0  0  0  0
   -1.3385   -1.4977    3.0876 H   0  0  0  0  0  0  0  0  0  0  0  0
   -1.3207   -1.1770    1.4064 H   0  0  0  0  0  0  0  0  0  0  0  0
   -2.5319   -3.3112    1.7347 H   0  0  0  0  0  0  0  0  0  0  0  0
   -1.1133   -3.6773    0.8368 H   0  0  0  0  0  0  0  0  0  0  0  0
   -1.2219   -5.3256    2.6617 H   0  0  0  0  0  0  0  0  0  0  0  0
    0.1682   -4.3863    2.9294 H   0  0  0  0  0  0  0  0  0  0  0  0
   -1.0260   -4.4774    5.0867 H   0  0  0  0  0  0  0  0  0  0  0  0
   -1.0630   -2.8494    4.6019 H   0  0  0  0  0  0  0  0  0  0  0  0
   -3.3800   -3.4278    5.2263 H   0  0  0  0  0  0  0  0  0  0  0  0
   -3.4150   -3.0848    3.5664 H   0  0  0  0  0  0  0  0  0  0  0  0
   -4.6203   -5.2324    3.8655 H   0  0  0  0  0  0  0  0  0  0  0  0
   -3.2343   -5.5758    2.9178 H   0  0  0  0  0  0  0  0  0  0  0  0
   -3.3026   -7.2623    4.7238 H   0  0  0  0  0  0  0  0  0  0  0  0
   -1.8920   -6.3216    4.9532 H   0  0  0  0  0  0  0  0  0  0  0  0
   -2.8784   -6.4629    6.9980 H   0  0  0  0  0  0  0  0  0  0  0  0
   -3.0638   -4.8114    6.6758 H   0  0  0  0  0  0  0  0  0  0  0  0
   -5.3439   -5.4175    7.4546 H   0  0  0  0  0  0  0  0  0  0  0  0
   -5.4619   -5.0593    5.7544 H   0  0  0  0  0  0  0  0  0  0  0  0
   -6.6977   -7.1338    6.2174 H   0  0  0  0  0  0  0  0  0  0  0  0
   -5.3115   -7.5334    5.2160 H   0  0  0  0  0  0  0  0  0  0  0  0
   -4.0574   -6.7973    8.5754 H   0  0  0  0  0  0  0  0  0  0  0  0
   -3.1401   -8.4609    9.9659 H   0  0  0  0  0  0  0  0  0  0  0  0
   -3.8380  -10.8179    9.7078 H   0  0  0  0  0  0  0  0  0  0  0  0
   -5.4441  -11.4343    7.8991 H   0  0  0  0  0  0  0  0  0  0  0  0
   -6.1682   -9.7231    6.2707 H   0  0  0  0  0  0  0  0  0  0  0  0
  1  2  1  0  0  0  0
  1 22  1  0  0  0  0
  1 23  1  0  0  0  0
  1 24  1  0  0  0  0
  2  3  1  0  0  0  0
  2 25  1  0  0  0  0
  2 26  1  0  0  0  0
  3  4  1  0  0  0  0
  3 27  1  0  0  0  0
  3 28  1  0  0  0  0
  4  5  1  0  0  0  0
  4 29  1  0  0  0  0
  4 30  1  0  0  0  0
  5  6  1  0  0  0  0
  5 31  1  0  0  0  0
  5 32  1  0  0  0  0
  6  7  1  0  0  0  0
  6 33  1  0  0  0  0
  6 34  1  0  0  0  0
  7  8  1  0  0  0  0
  7 35  1  0  0  0  0
  7 36  1  0  0  0  0
  8  9  1  0  0  0  0
  8 37  1  0  0  0  0
  8 38  1  0  0  0  0
  9 10  1  0  0  0  0
  9 39  1  0  0  0  0
  9 40  1  0  0  0  0
 10 11  1  0  0  0  0
 10 41  1  0  0  0  0
 10 42  1  0  0  0  0
 11 12  1  0  0  0  0
 11 43  1  0  0  0  0
 11 44  1  0  0  0  0
 12 13  1  0  0  0  0
 12 45  1  0  0  0  0
 12 46  1  0  0  0  0
 13 14  1  0  0  0  0
 13 47  1  0  0  0  0
 13 48  1  0  0  0  0
 14 15  1  0  0  0  0
 14 49  1  0  0  0  0
 14 50  1  0  0  0  0
 15 16  2  0  0  0  0
 15 20  1  0  0  0  0
 16 17  1  0  0  0  0
 16 51  1  0  0  0  0
 17 18  2  0  0  0  0
 17 52  1  0  0  0  0
 18 19  1  0  0  0  0
 18 53  1  0  0  0  0
 19 20  2  0  0  0  0
 19 54  1  0  0  0  0
 20 55  1  0  0  0  0
M  CHG  2  15   1  21  -1
M  END
$$$$

 OpenBabel05152416213D

 74 73  0  0  0  0  0  0  0  0999 V2000
    0.8651   -0.0972    0.2843 C   0  0  0  0  0  0  0  0  0  0  0  0
    0.5080   -0.5111   -1.1692 C   0  0  0  0  0  0  0  0  0  0  0  0
    1.0755   -1.9070   -1.4460 C   0  0  0  0  0  0  0  0  0  0  0  0
    0.5470   -2.8902   -0.3856 C   0  0  0  0  0  0  0  0  0  0  0  0
   -1.0078   -2.8246   -0.3338 C   0  0  0  0  0  0  0  0  0  0  0  0
   -1.5705   -3.1818   -1.6891 C   0  0  0  0  0  0  0  0  0  0  0  0
   -1.0967   -4.5575   -2.0197 C   0  0  0  0  0  0  0  0  0  0  0  0
   -1.5721   -5.6397   -0.9949 C   0  0  0  0  0  0  0  0  0  0  0  0
   -3.1003   -5.7229   -0.9755 C   0  0  0  0  0  0  0  0  0  0  0  0
   -3.6521   -6.1702   -2.3317 C   0  0  0  0  0  0  0  0  0  0  0  0
   -3.1765   -7.5214   -2.6422 N   0  0  0  0  0  0  0  0  0  0  0  0
   -3.7992   -8.6558   -2.3411 C   0  0  0  0  0  0  0  0  0  0  0  0
   -3.0359   -9.7084   -2.8015 C   0  0  0  0  0  0  0  0  0  0  0  0
   -1.9390   -9.2200   -3.3947 N   0  3  0  0  0  0  0  0  0  0  0  0
   -2.0147   -7.8653   -3.2584 C   0  0  0  0  0  0  0  0  0  0  0  0
   -1.0341   -6.8031   -3.6502 C   0  0  0  0  0  0  0  0  0  0  0  0
   -0.9186  -10.0908   -4.0241 C   0  0  0  0  0  0  0  0  0  0  0  0
   -0.8262   -9.8615   -5.5538 C   0  0  0  0  0  0  0  0  0  0  0  0
   -0.4336   -8.4414   -5.8649 C   0  0  0  0  0  0  0  0  0  0  0  0
    0.9477   -8.0962   -5.1379 C   0  0  0  0  0  0  0  0  0  0  0  0
    2.0759   -8.8417   -5.7723 C   0  0  0  0  0  0  0  0  0  0  0  0
    2.1553   -8.4038   -7.2389 C   0  0  0  0  0  0  0  0  0  0  0  0
    2.4344   -6.8787   -7.3531 C   0  0  0  0  0  0  0  0  0  0  0  0
    3.7799   -6.5254   -6.6848 C   0  0  0  0  0  0  0  0  0  0  0  0
    4.9242   -7.3567   -7.2877 C   0  0  0  0  0  0  0  0  0  0  0  0
    5.0297   -7.0928   -8.7890 C   0  0  0  0  0  0  0  0  0  0  0  0
    2.3878    2.1112   -1.3776 Cl  0  5  0  0  0  0  0  0  0  0  0  0
    0.3850   -0.7464    1.0468 H   0  0  0  0  0  0  0  0  0  0  0  0
    0.4964    0.9058    0.5483 H   0  0  0  0  0  0  0  0  0  0  0  0
    1.9626   -0.1811    0.4408 H   0  0  0  0  0  0  0  0  0  0  0  0
   -0.5910   -0.4493   -1.3110 H   0  0  0  0  0  0  0  0  0  0  0  0
    0.8739    0.1398   -1.9767 H   0  0  0  0  0  0  0  0  0  0  0  0
    0.8137   -2.2234   -2.4829 H   0  0  0  0  0  0  0  0  0  0  0  0
    2.1829   -1.8892   -1.4351 H   0  0  0  0  0  0  0  0  0  0  0  0
    0.9626   -3.8975   -0.5763 H   0  0  0  0  0  0  0  0  0  0  0  0
    0.9586   -2.6843    0.6111 H   0  0  0  0  0  0  0  0  0  0  0  0
   -1.4033   -3.4749    0.4585 H   0  0  0  0  0  0  0  0  0  0  0  0
   -1.4252   -1.8466   -0.0541 H   0  0  0  0  0  0  0  0  0  0  0  0
   -2.6731   -3.1247   -1.7247 H   0  0  0  0  0  0  0  0  0  0  0  0
   -1.2624   -2.4897   -2.5051 H   0  0  0  0  0  0  0  0  0  0  0  0
   -1.5082   -4.5821   -3.0025 H   0  0  0  0  0  0  0  0  0  0  0  0
   -0.0029   -4.6535   -2.1928 H   0  0  0  0  0  0  0  0  0  0  0  0
   -1.1589   -6.6445   -1.1827 H   0  0  0  0  0  0  0  0  0  0  0  0
   -1.1610   -5.4605    0.0144 H   0  0  0  0  0  0  0  0  0  0  0  0
   -3.4192   -6.4485   -0.2052 H   0  0  0  0  0  0  0  0  0  0  0  0
   -3.5385   -4.7472   -0.6975 H   0  0  0  0  0  0  0  0  0  0  0  0
   -4.7567   -6.1664   -2.3071 H   0  0  0  0  0  0  0  0  0  0  0  0
   -3.4254   -5.4702   -3.1618 H   0  0  0  0  0  0  0  0  0  0  0  0
   -4.7402   -8.7145   -1.8137 H   0  0  0  0  0  0  0  0  0  0  0  0
   -3.2751  -10.7551   -2.7027 H   0  0  0  0  0  0  0  0  0  0  0  0
   -0.1018   -6.7711   -3.0339 H   0  0  0  0  0  0  0  0  0  0  0  0
   -0.6515   -6.4305   -4.5955 H   0  0  0  0  0  0  0  0  0  0  0  0
   -1.6484   -6.0761   -4.1790 H   0  0  0  0  0  0  0  0  0  0  0  0
    0.0409   -9.9893   -3.4872 H   0  0  0  0  0  0  0  0  0  0  0  0
   -1.1927  -11.1527   -3.8838 H   0  0  0  0  0  0  0  0  0  0  0  0
   -0.0942  -10.5466   -6.0143 H   0  0  0  0  0  0  0  0  0  0  0  0
   -1.8100  -10.0620   -6.0264 H   0  0  0  0  0  0  0  0  0  0  0  0
   -0.4488   -8.1400   -6.9201 H   0  0  0  0  0  0  0  0  0  0  0  0
   -1.3755   -7.9206   -5.6535 H   0  0  0  0  0  0  0  0  0  0  0  0
    1.2046   -7.0196   -5.1216 H   0  0  0  0  0  0  0  0  0  0  0  0
    1.0030   -8.3178   -4.0609 H   0  0  0  0  0  0  0  0  0  0  0  0
    3.0086   -8.6406   -5.2065 H   0  0  0  0  0  0  0  0  0  0  0  0
    1.9154   -9.9257   -5.6594 H   0  0  0  0  0  0  0  0  0  0  0  0
    2.9000   -9.0252   -7.7482 H   0  0  0  0  0  0  0  0  0  0  0  0
    1.2498   -8.6610   -7.8051 H   0  0  0  0  0  0  0  0  0  0  0  0
    2.4094   -6.5843   -8.4134 H   0  0  0  0  0  0  0  0  0  0  0  0
    1.6317   -6.2365   -6.9337 H   0  0  0  0  0  0  0  0  0  0  0  0
    3.9843   -5.4437   -6.8063 H   0  0  0  0  0  0  0  0  0  0  0  0
    3.7417   -6.6928   -5.5857 H   0  0  0  0  0  0  0  0  0  0  0  0
    5.8735   -7.1004   -6.7843 H   0  0  0  0  0  0  0  0  0  0  0  0
    4.7833   -8.4432   -7.1036 H   0  0  0  0  0  0  0  0  0  0  0  0
    5.2064   -6.0085   -8.9446 H   0  0  0  0  0  0  0  0  0  0  0  0
    5.8452   -7.6921   -9.2257 H   0  0  0  0  0  0  0  0  0  0  0  0
    4.1095   -7.3866   -9.3359 H   0  0  0  0  0  0  0  0  0  0  0  0
  1  2  1  0  0  0  0
  1 28  1  0  0  0  0
  1 29  1  0  0  0  0
  1 30  1  0  0  0  0
  2  3  1  0  0  0  0
  2 31  1  0  0  0  0
  2 32  1  0  0  0  0
  3  4  1  0  0  0  0
  3 33  1  0  0  0  0
  3 34  1  0  0  0  0
  4  5  1  0  0  0  0
  4 35  1  0  0  0  0
  4 36  1  0  0  0  0
  5  6  1  0  0  0  0
  5 37  1  0  0  0  0
  5 38  1  0  0  0  0
  6  7  1  0  0  0  0
  6 39  1  0  0  0  0
  6 40  1  0  0  0  0
  7  8  1  0  0  0  0
  7 41  1  0  0  0  0
  7 42  1  0  0  0  0
  8  9  1  0  0  0  0
  8 43  1  0  0  0  0
  8 44  1  0  0  0  0
  9 10  1  0  0  0  0
  9 45  1  0  0  0  0
  9 46  1  0  0  0  0
 10 11  1  0  0  0  0
 10 47  1  0  0  0  0
 10 48  1  0  0  0  0
 11 12  1  0  0  0  0
 11 15  1  0  0  0  0
 12 13  2  0  0  0  0
 12 49  1  0  0  0  0
 13 14  1  0  0  0  0
 13 50  1  0  0  0  0
 14 15  2  0  0  0  0
 14 17  1  0  0  0  0
 15 16  1  0  0  0  0
 16 51  1  0  0  0  0
 16 52  1  0  0  0  0
 16 53  1  0  0  0  0
 17 18  1  0  0  0  0
 17 54  1  0  0  0  0
 17 55  1  0  0  0  0
 18 19  1  0  0  0  0
 18 56  1  0  0  0  0
 18 57  1  0  0  0  0
 19 20  1  0  0  0  0
 19 58  1  0  0  0  0
 19 59  1  0  0  0  0
 20 21  1  0  0  0  0
 20 60  1  0  0  0  0
 20 61  1  0  0  0  0
 21 22  1  0  0  0  0
 21 62  1  0  0  0  0
 21 63  1  0  0  0  0
 22 23  1  0  0  0  0
 22 64  1  0  0  0  0
 22 65  1  0  0  0  0
 23 24  1  0  0  0  0
 23 66  1  0  0  0  0
 23 67  1  0  0  0  0
 24 25  1  0  0  0  0
 24 68  1  0  0  0  0
 24 69  1  0  0  0  0
 25 26  1  0  0  0  0
 25 70  1  0  0  0  0
 25 71  1  0  0  0  0
 26 72  1  0  0  0  0
 26 73  1  0  0  0  0
 26 74  1  0  0  0  0
M  CHG  2  14   1  27  -1
M  END
$$$$

 OpenBabel05152416213D

 47 49  0  0  0  0  0  0  0  0999 V2000
    1.3993   -0.1454    0.1963 C   0  0  0  0  0  0  0  0  0  0  0  0
    0.6905   -1.3584   -0.4499 C   0  0  0  0  0  0  0  0  0  0  0  0
    1.2096   -2.6189    0.2286 C   0  0  0  0  0  0  0  0  0  0  0  0
   -0.8956   -1.2370   -0.5177 C   0  0  0  0  0  0  0  0  0  0  0  0
   -1.6055   -2.0130    0.6033 C   0  0  0  0  0  0  0  0  0  0  0  0
   -2.8870   -1.2652    0.9389 C   0  0  0  0  0  0  0  0  0  0  0  0
   -2.9872   -0.1123   -0.0612 C   0  0  0  0  0  0  0  0  0  0  0  0
   -1.5145    0.1948   -0.4522 C   0  0  0  0  0  0  0  0  0  0  0  0
   -1.3805    1.0146   -1.8147 C   0  0  0  0  0  0  0  0  0  0  0  0
   -0.0090    1.2075   -2.3015 N   0  0  0  0  0  0  0  0  0  0  0  0
    0.7507    0.3094   -2.9541 C   0  0  0  0  0  0  0  0  0  0  0  0
    1.9848    0.8008   -3.1661 N   0  0  0  0  0  0  0  0  0  0  0  0
    1.9166    2.0476   -2.6615 C   0  0  0  0  0  0  0  0  0  0  0  0
    0.6919    2.3091   -2.1511 N   0  0  0  0  0  0  0  0  0  0  0  0
   -0.9647    0.8830    0.6477 O   0  0  0  0  0  0  0  0  0  0  0  0
   -3.7333    1.0945    0.5902 C   0  0  0  0  0  0  0  0  0  0  0  0
   -3.8444    2.2319   -0.3759 C   0  0  0  0  0  0  0  0  0  0  0  0
   -4.5329    2.0206   -1.5747 C   0  0  0  0  0  0  0  0  0  0  0  0
   -4.6032    3.0259   -2.5317 C   0  0  0  0  0  0  0  0  0  0  0  0
   -3.9886    4.2594   -2.3006 C   0  0  0  0  0  0  0  0  0  0  0  0
   -3.2930    4.4845   -1.1064 C   0  0  0  0  0  0  0  0  0  0  0  0
   -3.2207    3.4761   -0.1389 C   0  0  0  0  0  0  0  0  0  0  0  0
   -4.0902    5.5169   -3.5155 Cl  0  0  0  0  0  0  0  0  0  0  0  0
    1.1308   -0.0656    1.2674 H   0  0  0  0  0  0  0  0  0  0  0  0
    1.1361    0.8125   -0.2669 H   0  0  0  0  0  0  0  0  0  0  0  0
    2.4933   -0.1945    0.0680 H   0  0  0  0  0  0  0  0  0  0  0  0
    1.0801   -1.4969   -1.4587 H   0  0  0  0  0  0  0  0  0  0  0  0
    0.9950   -2.6016    1.3146 H   0  0  0  0  0  0  0  0  0  0  0  0
    0.7672   -3.5154   -0.2489 H   0  0  0  0  0  0  0  0  0  0  0  0
    2.3144   -2.6455    0.1250 H   0  0  0  0  0  0  0  0  0  0  0  0
   -1.2766   -1.7109   -1.4601 H   0  0  0  0  0  0  0  0  0  0  0  0
   -1.0118   -1.9794    1.5324 H   0  0  0  0  0  0  0  0  0  0  0  0
   -1.7583   -3.0784    0.3113 H   0  0  0  0  0  0  0  0  0  0  0  0
   -2.7300   -0.8477    1.9609 H   0  0  0  0  0  0  0  0  0  0  0  0
   -3.7911   -1.9100    0.9867 H   0  0  0  0  0  0  0  0  0  0  0  0
   -3.5146   -0.5182   -0.9530 H   0  0  0  0  0  0  0  0  0  0  0  0
   -1.9836    0.5551   -2.6269 H   0  0  0  0  0  0  0  0  0  0  0  0
   -1.7754    2.0269   -1.6726 H   0  0  0  0  0  0  0  0  0  0  0  0
    0.4295   -0.6815   -3.2350 H   0  0  0  0  0  0  0  0  0  0  0  0
    2.7435    2.7416   -2.6532 H   0  0  0  0  0  0  0  0  0  0  0  0
   -1.1103    1.8534    0.5340 H   0  0  0  0  0  0  0  0  0  0  0  0
   -4.7441    0.7936    0.9299 H   0  0  0  0  0  0  0  0  0  0  0  0
   -3.1844    1.4263    1.5041 H   0  0  0  0  0  0  0  0  0  0  0  0
   -4.9957    1.0631   -1.7733 H   0  0  0  0  0  0  0  0  0  0  0  0
   -5.1302    2.8345   -3.4551 H   0  0  0  0  0  0  0  0  0  0  0  0
   -2.8013    5.4341   -0.9339 H   0  0  0  0  0  0  0  0  0  0  0  0
   -2.6552    3.6584    0.7689 H   0  0  0  0  0  0  0  0  0  0  0  0
  1  2  1  0  0  0  0
  1 24  1  0  0  0  0
  1 25  1  0  0  0  0
  1 26  1  0  0  0  0
  2  3  1  0  0  0  0
  2  4  1  0  0  0  0
  2 27  1  0  0  0  0
  3 28  1  0  0  0  0
  3 29  1  0  0  0  0
  3 30  1  0  0  0  0
  4  5  1  0  0  0  0
  4  8  1  0  0  0  0
  4 31  1  0  0  0  0
  5  6  1  0  0  0  0
  5 32  1  0  0  0  0
  5 33  1  0  0  0  0
  6  7  1  0  0  0  0
  6 34  1  0  0  0  0
  6 35  1  0  0  0  0
  7  8  1  0  0  0  0
  7 16  1  0  0  0  0
  7 36  1  0  0  0  0
  8  9  1  0  0  0  0
  8 15  1  0  0  0  0
  9 10  1  0  0  0  0
  9 37  1  0  0  0  0
  9 38  1  0  0  0  0
 10 11  1  0  0  0  0
 10 14  1  0  0  0  0
 11 12  2  0  0  0  0
 11 39  1  0  0  0  0
 12 13  1  0  0  0  0
 13 14  2  0  0  0  0
 13 40  1  0  0  0  0
 15 41  1  0  0  0  0
 16 17  1  0  0  0  0
 16 42  1  0  0  0  0
 16 43  1  0  0  0  0
 17 18  2  0  0  0  0
 17 22  1  0  0  0  0
 18 19  1  0  0  0  0
 18 44  1  0  0  0  0
 19 20  2  0  0  0  0
 19 45  1  0  0  0  0
 20 21  1  0  0  0  0
 20 23  1  0  0  0  0
 21 22  2  0  0  0  0
 21 46  1  0  0  0  0
 22 47  1  0  0  0  0
M  END
$$$$

 OpenBabel05152416213D

 57 59  0  0  0  0  0  0  0  0999 V2000
    0.9625   -0.2604   -0.1457 C   0  0  0  0  0  0  0  0  0  0  0  0
    0.5446    0.1796    1.2459 C   0  0  0  0  0  0  0  0  0  0  0  0
    1.0059    1.5855    1.6841 C   0  0  0  0  0  0  0  0  0  0  0  0
    0.0850    2.5823    2.0245 C   0  0  0  0  0  0  0  0  0  0  0  0
   -1.3860    2.3355    2.1061 C   0  0  0  0  0  0  0  0  0  0  0  0
   -2.2793    3.2968    1.5817 C   0  0  0  0  0  0  0  0  0  0  0  0
   -3.6547    3.0908    1.6491 C   0  0  0  0  0  0  0  0  0  0  0  0
   -4.1554    1.9248    2.2288 C   0  0  0  0  0  0  0  0  0  0  0  0
   -3.2824    0.9738    2.7594 C   0  0  0  0  0  0  0  0  0  0  0  0
   -1.9107    1.1885    2.7179 C   0  0  0  0  0  0  0  0  0  0  0  0
    0.4253    4.0270    2.2391 C   0  0  0  0  0  0  0  0  0  0  0  0
   -0.1450    4.7617    3.3108 C   0  0  0  0  0  0  0  0  0  0  0  0
    0.1705    6.1099    3.5069 C   0  0  0  0  0  0  0  0  0  0  0  0
    1.0683    6.7674    2.6303 C   0  0  0  0  0  0  0  0  0  0  0  0
    1.5310    6.0602    1.4975 C   0  0  0  0  0  0  0  0  0  0  0  0
    1.2383    4.7107    1.3244 C   0  0  0  0  0  0  0  0  0  0  0  0
    1.6162    7.9537    3.0086 O   0  0  0  0  0  0  0  0  0  0  0  0
    2.8761    8.4582    2.6082 C   0  0  0  0  0  0  0  0  0  0  0  0
    4.1697    7.6458    3.0127 C   0  0  0  0  0  0  0  0  0  0  0  0
    4.0970    6.2367    2.6266 N   0  0  0  0  0  0  0  0  0  0  0  0
    5.3951    5.5905    2.3782 C   0  0  0  0  0  0  0  0  0  0  0  0
    3.4032    5.4708    3.6699 C   0  0  0  0  0  0  0  0  0  0  0  0
    2.4920    1.8165    1.7708 C   0  0  0  0  0  0  0  0  0  0  0  0
    3.0517    2.3158    2.9562 C   0  0  0  0  0  0  0  0  0  0  0  0
    4.4300    2.5692    3.0477 C   0  0  0  0  0  0  0  0  0  0  0  0
    5.2688    2.2941    1.9679 C   0  0  0  0  0  0  0  0  0  0  0  0
    4.7362    1.7661    0.8021 C   0  0  0  0  0  0  0  0  0  0  0  0
    3.3685    1.5342    0.7024 C   0  0  0  0  0  0  0  0  0  0  0  0
    0.7184    0.5479   -0.8718 H   0  0  0  0  0  0  0  0  0  0  0  0
    0.4073   -1.1772   -0.4252 H   0  0  0  0  0  0  0  0  0  0  0  0
    2.0195   -0.5698   -0.1744 H   0  0  0  0  0  0  0  0  0  0  0  0
   -0.5408    0.1156    1.1429 H   0  0  0  0  0  0  0  0  0  0  0  0
    0.8740   -0.5790    1.9899 H   0  0  0  0  0  0  0  0  0  0  0  0
   -1.9135    4.2007    1.1052 H   0  0  0  0  0  0  0  0  0  0  0  0
   -4.3283    3.8348    1.2448 H   0  0  0  0  0  0  0  0  0  0  0  0
   -5.2201    1.7581    2.2742 H   0  0  0  0  0  0  0  0  0  0  0  0
   -3.6592    0.0684    3.2099 H   0  0  0  0  0  0  0  0  0  0  0  0
   -1.2551    0.4511    3.1642 H   0  0  0  0  0  0  0  0  0  0  0  0
   -0.7848    4.2587    4.0326 H   0  0  0  0  0  0  0  0  0  0  0  0
   -0.1984    6.6136    4.3985 H   0  0  0  0  0  0  0  0  0  0  0  0
    2.2184    6.5267    0.8073 H   0  0  0  0  0  0  0  0  0  0  0  0
    1.6686    4.1805    0.4878 H   0  0  0  0  0  0  0  0  0  0  0  0
    2.8606    8.5952    1.5118 H   0  0  0  0  0  0  0  0  0  0  0  0
    3.0144    9.4556    3.0719 H   0  0  0  0  0  0  0  0  0  0  0  0
    5.0164    8.1313    2.4737 H   0  0  0  0  0  0  0  0  0  0  0  0
    4.4162    7.7087    4.0953 H   0  0  0  0  0  0  0  0  0  0  0  0
    5.8766    5.2544    3.3274 H   0  0  0  0  0  0  0  0  0  0  0  0
    5.2072    4.7314    1.7162 H   0  0  0  0  0  0  0  0  0  0  0  0
    6.1056    6.2157    1.8078 H   0  0  0  0  0  0  0  0  0  0  0  0
    3.9951    5.2549    4.5675 H   0  0  0  0  0  0  0  0  0  0  0  0
    2.5984    6.0066    4.1476 H   0  0  0  0  0  0  0  0  0  0  0  0
    2.9509    4.6275    3.1798 H   0  0  0  0  0  0  0  0  0  0  0  0
    2.4201    2.5515    3.8077 H   0  0  0  0  0  0  0  0  0  0  0  0
    4.8430    3.0201    3.9416 H   0  0  0  0  0  0  0  0  0  0  0  0
    6.3250    2.5272    2.0170 H   0  0  0  0  0  0  0  0  0  0  0  0
    5.3748    1.5602   -0.0458 H   0  0  0  0  0  0  0  0  0  0  0  0
    3.0311    1.1849   -0.2452 H   0  0  0  0  0  0  0  0  0  0  0  0
  1  2  1  0  0  0  0
  1 29  1  0  0  0  0
  1 30  1  0  0  0  0
  1 31  1  0  0  0  0
  2  3  1  0  0  0  0
  2 32  1  0  0  0  0
  2 33  1  0  0  0  0
  3  4  2  0  0  0  0
  3 23  1  0  0  0  0
  4  5  1  0  0  0  0
  4 11  1  0  0  0  0
  5  6  2  0  0  0  0
  5 10  1  0  0  0  0
  6  7  1  0  0  0  0
  6 34  1  0  0  0  0
  7  8  2  0  0  0  0
  7 35  1  0  0  0  0
  8  9  1  0  0  0  0
  8 36  1  0  0  0  0
  9 10  2  0  0  0  0
  9 37  1  0  0  0  0
 10 38  1  0  0  0  0
 11 12  2  0  0  0  0
 11 16  1  0  0  0  0
 12 13  1  0  0  0  0
 12 39  1  0  0  0  0
 13 14  2  0  0  0  0
 13 40  1  0  0  0  0
 14 15  1  0  0  0  0
 14 17  1  0  0  0  0
 15 16  2  0  0  0  0
 15 41  1  0  0  0  0
 16 42  1  0  0  0  0
 17 18  1  0  0  0  0
 18 19  1  0  0  0  0
 18 43  1  0  0  0  0
 18 44  1  0  0  0  0
 19 20  1  0  0  0  0
 19 45  1  0  0  0  0
 19 46  1  0  0  0  0
 20 21  1  0  0  0  0
 20 22  1  0  0  0  0
 21 47  1  0  0  0  0
 21 48  1  0  0  0  0
 21 49  1  0  0  0  0
 22 50  1  0  0  0  0
 22 51  1  0  0  0  0
 22 52  1  0  0  0  0
 23 24  2  0  0  0  0
 23 28  1  0  0  0  0
 24 25  1  0  0  0  0
 24 53  1  0  0  0  0
 25 26  2  0  0  0  0
 25 54  1  0  0  0  0
 26 27  1  0  0  0  0
 26 55  1  0  0  0  0
 27 28  2  0  0  0  0
 27 56  1  0  0  0  0
 28 57  1  0  0  0  0
M  END
$$$$

 OpenBabel05152416213D

 78 79  0  0  0  0  0  0  0  0999 V2000
    2.0785   -0.6417   -0.2321 C   0  0  0  0  0  0  0  0  0  0  0  0
    0.0295    1.1036   -1.7371 N   0  0  0  0  0  0  0  0  0  0  0  0
   -1.6308    1.0139   -1.4698 C   0  0  0  0  0  0  0  0  0  0  0  0
    1.0626    2.5442   -1.7218 C   0  0  0  0  0  0  0  0  0  0  0  0
    1.3041    3.4668    0.1009 C   0  0  0  0  0  0  0  0  0  0  0  0
    1.6491    2.2822    1.6197 O   0  0  0  0  0  0  0  0  0  0  0  0
    0.5265    0.6990    2.1545 C   0  0  0  0  0  0  0  0  0  0  0  0
    0.1131    0.2829    3.1504 C   0  0  0  0  0  0  0  0  0  0  0  0
    0.2351   -1.0658    3.1060 C   0  0  0  0  0  0  0  0  0  0  0  0
   -0.3450   -2.0275    2.0728 C   0  0  0  0  0  0  0  0  0  0  0  0
   -0.5383   -1.5332    0.8554 C   0  0  0  0  0  0  0  0  0  0  0  0
   -0.2504   -0.4863    0.5323 C   0  0  0  0  0  0  0  0  0  0  0  0
   -0.5330   -3.5675    2.2064 C   0  0  0  0  0  0  0  0  0  0  0  0
   -0.5495   -3.9573    3.4413 C   0  0  0  0  0  0  0  0  0  0  0  0
   -0.7673   -5.3746    3.6088 C   0  0  0  0  0  0  0  0  0  0  0  0
    0.1874   -5.9807    4.5386 C   0  0  0  0  0  0  0  0  0  0  0  0
   -0.1942   -5.6849    6.2422 Cl  0  0  0  0  0  0  0  0  0  0  0  0
   -0.6850   -3.0247    4.5795 C   0  0  0  0  0  0  0  0  0  0  0  0
    0.1531   -3.0989    5.6591 C   0  0  0  0  0  0  0  0  0  0  0  0
   -0.1797   -2.3779    6.7714 C   0  0  0  0  0  0  0  0  0  0  0  0
   -0.7681   -1.1590    6.6104 C   0  0  0  0  0  0  0  0  0  0  0  0
   -1.3604   -0.8582    5.4313 C   0  0  0  0  0  0  0  0  0  0  0  0
   -1.5246   -1.8621    4.5111 C   0  0  0  0  0  0  0  0  0  0  0  0
   -0.2264   -4.7024    1.0277 C   0  0  0  0  0  0  0  0  0  0  0  0
   -1.3571   -5.2439    0.5555 C   0  0  0  0  0  0  0  0  0  0  0  0
   -1.1873   -6.2353   -0.3698 C   0  0  0  0  0  0  0  0  0  0  0  0
   -0.0268   -6.4280   -1.1204 C   0  0  0  0  0  0  0  0  0  0  0  0
    1.1084   -5.8459   -0.8107 C   0  0  0  0  0  0  0  0  0  0  0  0
    1.1396   -5.1961    0.3126 C   0  0  0  0  0  0  0  0  0  0  0  0
    0.9426    1.1294    0.0716 C   0  0  0  0  0  0  0  0  0  0  0  0
   -0.3654    1.9569    0.5628 C   0  0  0  0  0  0  0  0  0  0  0  0
   -0.7036    2.4909   -0.2552 O   0  0  0  0  0  0  0  0  0  0  0  0
   -0.4331    2.6661    1.7726 O   0  0  0  0  0  0  0  0  0  0  0  0
    0.2859   -0.9703   -1.8783 C   0  0  0  0  0  0  0  0  0  0  0  0
    0.9702   -2.2364   -1.9883 C   0  0  0  0  0  0  0  0  0  0  0  0
    0.6986   -3.1878   -0.9944 C   0  0  0  0  0  0  0  0  0  0  0  0
   -0.4530   -3.6927   -1.2001 O   0  0  0  0  0  0  0  0  0  0  0  0
    1.4425   -2.9781    0.3890 O   0  0  0  0  0  0  0  0  0  0  0  0
   -1.2856   -1.3347   -2.1001 C   0  0  0  0  0  0  0  0  0  0  0  0
   -1.8643   -0.7002   -2.9991 O   0  0  0  0  0  0  0  0  0  0  0  0
   -2.0492   -1.7726   -0.9752 O   0  0  0  0  0  0  0  0  0  0  0  0
    1.0617   -0.4155   -3.1984 O   0  0  0  0  0  0  0  0  0  0  0  0
    1.6678   -1.2131   -0.2540 H   0  0  0  0  0  0  0  0  0  0  0  0
    2.5220    0.2569    1.0386 H   0  0  0  0  0  0  0  0  0  0  0  0
    2.8744   -0.6719   -0.3818 H   0  0  0  0  0  0  0  0  0  0  0  0
   -1.9415    0.9201   -0.3674 H   0  0  0  0  0  0  0  0  0  0  0  0
   -1.3912    1.5241   -2.2417 H   0  0  0  0  0  0  0  0  0  0  0  0
   -1.9658    0.2825   -0.8463 H   0  0  0  0  0  0  0  0  0  0  0  0
    2.1697    2.2613   -1.7806 H   0  0  0  0  0  0  0  0  0  0  0  0
    0.5447    2.8158   -2.4712 H   0  0  0  0  0  0  0  0  0  0  0  0
    0.7704    4.2751   -0.0640 H   0  0  0  0  0  0  0  0  0  0  0  0
   -0.2770    4.1413    0.3973 H   0  0  0  0  0  0  0  0  0  0  0  0
    0.0969    1.0810    3.6928 H   0  0  0  0  0  0  0  0  0  0  0  0
    0.6020   -1.3743    3.9204 H   0  0  0  0  0  0  0  0  0  0  0  0
   -0.1590   -1.9194    0.2963 H   0  0  0  0  0  0  0  0  0  0  0  0
    1.5392    0.4221   -1.6022 H   0  0  0  0  0  0  0  0  0  0  0  0
   -1.8065   -5.4315    3.9185 H   0  0  0  0  0  0  0  0  0  0  0  0
   -0.7354   -5.9804    2.7004 H   0  0  0  0  0  0  0  0  0  0  0  0
   -0.0452   -7.0178    4.6259 H   0  0  0  0  0  0  0  0  0  0  0  0
    1.2146   -5.8508    4.1369 H   0  0  0  0  0  0  0  0  0  0  0  0
    0.9776   -3.7800    5.6837 H   0  0  0  0  0  0  0  0  0  0  0  0
    0.0751   -2.7063    7.7387 H   0  0  0  0  0  0  0  0  0  0  0  0
   -0.7727   -0.4669    7.4118 H   0  0  0  0  0  0  0  0  0  0  0  0
   -1.7641    0.0944    5.2145 H   0  0  0  0  0  0  0  0  0  0  0  0
   -1.9232   -1.4817    3.5516 H   0  0  0  0  0  0  0  0  0  0  0  0
   -2.2775   -4.8811    0.9725 H   0  0  0  0  0  0  0  0  0  0  0  0
   -1.9607   -6.8747   -0.5157 H   0  0  0  0  0  0  0  0  0  0  0  0
   -0.0018   -7.0673   -1.9383 H   0  0  0  0  0  0  0  0  0  0  0  0
    2.0395   -5.8406   -1.3461 H   0  0  0  0  0  0  0  0  0  0  0  0
    2.2372   -4.7184    0.2284 H   0  0  0  0  0  0  0  0  0  0  0  0
    1.3951   -0.8161    1.4692 H   0  0  0  0  0  0  0  0  0  0  0  0
    2.0631    1.4624   -0.1535 H   0  0  0  0  0  0  0  0  0  0  0  0
    0.1809    3.3983    2.0613 H   0  0  0  0  0  0  0  0  0  0  0  0
    0.6306   -2.3918   -2.9179 H   0  0  0  0  0  0  0  0  0  0  0  0
    2.0243   -2.0179   -1.9527 H   0  0  0  0  0  0  0  0  0  0  0  0
    1.3595   -3.2469    1.3596 H   0  0  0  0  0  0  0  0  0  0  0  0
   -2.8560   -1.3795   -0.5147 H   0  0  0  0  0  0  0  0  0  0  0  0
    0.4848    0.1422   -3.6983 H   0  0  0  0  0  0  0  0  0  0  0  0
  1  2  1  0  0  0  0
  1 43  1  0  0  0  0
  1 44  1  0  0  0  0
  1 45  1  0  0  0  0
  2  3  1  0  0  0  0
  2  4  1  0  0  0  0
  3 46  1  0  0  0  0
  3 47  1  0  0  0  0
  3 48  1  0  0  0  0
  4  5  1  0  0  0  0
  4 49  1  0  0  0  0
  4 50  1  0  0  0  0
  5  6  1  0  0  0  0
  5 51  1  0  0  0  0
  5 52  1  0  0  0  0
  6  7  1  0  0  0  0
  7  8  2  0  0  0  0
  7 12  1  0  0  0  0
  8  9  1  0  0  0  0
  8 53  1  0  0  0  0
  9 10  2  0  0  0  0
  9 54  1  0  0  0  0
 10 11  1  0  0  0  0
 10 13  1  0  0  0  0
 11 12  2  0  0  0  0
 11 55  1  0  0  0  0
 12 56  1  0  0  0  0
 13 14  2  0  0  0  0
 13 24  1  0  0  0  0
 14 15  1  0  0  0  0
 14 18  1  0  0  0  0
 15 16  1  0  0  0  0
 15 57  1  0  0  0  0
 15 58  1  0  0  0  0
 16 17  1  0  0  0  0
 16 59  1  0  0  0  0
 16 60  1  0  0  0  0
 18 19  2  0  0  0  0
 18 23  1  0  0  0  0
 19 20  1  0  0  0  0
 19 61  1  0  0  0  0
 20 21  2  0  0  0  0
 20 62  1  0  0  0  0
 21 22  1  0  0  0  0
 21 63  1  0  0  0  0
 22 23  2  0  0  0  0
 22 64  1  0  0  0  0
 23 65  1  0  0  0  0
 24 25  2  0  0  0  0
 24 29  1  0  0  0  0
 25 26  1  0  0  0  0
 25 66  1  0  0  0  0
 26 27  2  0  0  0  0
 26 67  1  0  0  0  0
 27 28  1  0  0  0  0
 27 68  1  0  0  0  0
 28 29  2  0  0  0  0
 28 69  1  0  0  0  0
 29 70  1  0  0  0  0
 30 31  1  0  0  0  0
 30 34  1  0  0  0  0
 30 71  1  0  0  0  0
 30 72  1  0  0  0  0
 31 32  2  0  0  0  0
 31 33  1  0  0  0  0
 33 73  1  0  0  0  0
 34 35  1  0  0  0  0
 34 39  1  0  0  0  0
 34 42  1  0  0  0  0
 35 36  1  0  0  0  0
 35 74  1  0  0  0  0
 35 75  1  0  0  0  0
 36 37  2  0  0  0  0
 36 38  1  0  0  0  0
 38 76  1  0  0  0  0
 39 40  2  0  0  0  0
 39 41  1  0  0  0  0
 41 77  1  0  0  0  0
 42 78  1  0  0  0  0
M  END
$$$$

 OpenBabel05152416213D

119126  0  0  1  0  0  0  0  0999 V2000
    1.3503    0.4492    0.7900 C   0  0  0  0  0  0  0  0  0  0  0  0
   -0.5185    0.2641   -1.7252 C   0  0  2  0  0  0  0  0  0  0  0  0
    1.5187   -1.7785   -2.7675 C   0  0  2  0  0  0  0  0  0  0  0  0
    2.3084   -0.8430   -2.2790 C   0  0  2  0  0  0  0  0  0  0  0  0
    3.1543    0.9011   -2.9191 C   0  0  0  0  0  0  0  0  0  0  0  0
    2.4438    2.3303   -2.3510 C   0  0  1  0  0  0  0  0  0  0  0  0
    0.2725    2.4232   -2.3185 O   0  0  0  0  0  0  0  0  0  0  0  0
    2.8388    1.8537   -0.9316 O   0  0  0  0  0  0  0  0  0  0  0  0
    3.4522    0.6132   -0.4671 C   0  0  2  0  0  0  0  0  0  0  0  0
    4.1832   -1.5755   -1.5538 C   0  0  2  0  0  0  0  0  0  0  0  0
    3.4989   -0.9757   -3.7943 O   0  0  0  0  0  0  0  0  0  0  0  0
    0.8236   -0.1029   -3.7059 C   0  0  2  0  0  0  0  0  0  0  0  0
    0.7315    0.7754   -3.4252 C   0  0  0  0  0  0  0  0  0  0  0  0
    1.2665    1.0720   -1.1417 C   0  0  2  0  0  0  0  0  0  0  0  0
    0.0683    2.0726   -0.3151 O   0  0  0  0  0  0  0  0  0  0  0  0
   -0.4622   -1.7272   -2.4877 O   0  0  0  0  0  0  0  0  0  0  0  0
    0.3033   -2.5700   -1.0956 C   0  0  2  0  0  0  0  0  0  0  0  0
    0.8990   -1.2572   -0.3983 C   0  0  2  0  0  0  0  0  0  0  0  0
    2.6813   -1.0950    0.5205 O   0  0  0  0  0  0  0  0  0  0  0  0
    3.5223   -2.0005    1.3875 C   0  0  2  0  0  0  0  0  0  0  0  0
    3.6356   -3.8426    0.5627 C   0  0  0  0  0  0  0  0  0  0  0  0
    0.9568   -3.5835   -0.6206 C   0  0  2  0  0  0  0  0  0  0  0  0
    1.2626   -4.7787   -0.9094 O   0  0  0  0  0  0  0  0  0  0  0  0
    2.5995   -2.1151    2.4182 O   0  0  0  0  0  0  0  0  0  0  0  0
    1.1526   -2.7206    2.6016 C   0  0  1  0  0  0  0  0  0  0  0  0
   -0.4616   -2.0011    2.1917 C   0  0  0  0  0  0  0  0  0  0  0  0
   -1.2894   -2.1393    0.5093 C   0  0  0  0  0  0  0  0  0  0  0  0
   -1.7139   -3.7900    0.0451 C   0  0  1  0  0  0  0  0  0  0  0  0
   -0.9957   -4.1880    1.3500 C   0  0  1  0  0  0  0  0  0  0  0  0
   -0.0600   -3.5579    2.5952 C   0  0  0  0  0  0  0  0  0  0  0  0
   -0.1835   -4.7357    0.8178 C   0  0  0  0  0  0  0  0  0  0  0  0
   -0.7123   -5.0080   -1.5656 C   0  0  0  0  0  0  0  0  0  0  0  0
   -0.8166   -6.2704   -0.8980 C   0  0  2  0  0  0  0  0  0  0  0  0
   -0.8973   -6.0973   -1.8770 C   0  0  2  0  0  0  0  0  0  0  0  0
    0.7043   -7.1881   -2.4678 C   0  0  0  0  0  0  0  0  0  0  0  0
    1.5038   -8.1051   -1.3819 C   0  0  2  0  0  0  0  0  0  0  0  0
    1.6921   -7.3788   -0.1965 C   0  0  1  0  0  0  0  0  0  0  0  0
    0.1256   -7.0401    0.2940 C   0  0  2  0  0  0  0  0  0  0  0  0
   -0.7476   -8.1047    0.3409 C   0  0  0  0  0  0  0  0  0  0  0  0
   -1.3917   -7.6639    1.2116 C   0  0  0  0  0  0  0  0  0  0  0  0
    1.5342   -7.9402    1.1959 C   0  0  2  0  0  0  0  0  0  0  0  0
    3.0290   -7.8614    2.1102 C   0  0  0  0  0  0  0  0  0  0  0  0
    3.2539   -8.7710    3.0909 C   0  0  0  0  0  0  0  0  0  0  0  0
    4.4703   -8.4749    3.7878 C   0  0  0  0  0  0  0  0  0  0  0  0
    4.8697   -9.0544    4.7867 O   0  0  0  0  0  0  0  0  0  0  0  0
    5.0803   -7.4185    3.2311 O   0  0  0  0  0  0  0  0  0  0  0  0
    4.3428   -6.9724    2.1264 C   0  0  0  0  0  0  0  0  0  0  0  0
    0.2007   -6.4964    1.9121 O   0  0  0  0  0  0  0  0  0  0  0  0
    2.9843   -6.4332   -0.7504 C   0  0  0  0  0  0  0  0  0  0  0  0
    2.0049   -9.3330   -1.7324 O   0  0  0  0  0  0  0  0  0  0  0  0
   -2.7852   -2.3564    0.5907 C   0  0  0  0  0  0  0  0  0  0  0  0
   -0.2536   -0.1096    2.1214 C   0  0  0  0  0  0  0  0  0  0  0  0
    2.9956   -2.5815   -0.9991 C   0  0  0  0  0  0  0  0  0  0  0  0
    3.1002   -2.7139   -3.1164 O   0  0  0  0  0  0  0  0  0  0  0  0
    0.9560   -2.2245   -4.0655 O   0  0  0  0  0  0  0  0  0  0  0  0
    1.0768   -1.2623    1.3496 H   0  0  0  0  0  0  0  0  0  0  0  0
    1.1468    1.0347    0.9330 H   0  0  0  0  0  0  0  0  0  0  0  0
    1.7944    0.6203    0.7109 H   0  0  0  0  0  0  0  0  0  0  0  0
   -1.3031    0.0531   -1.5134 H   0  0  0  0  0  0  0  0  0  0  0  0
    1.4796   -2.2627   -2.5181 H   0  0  0  0  0  0  0  0  0  0  0  0
    2.8887   -0.2842   -2.0351 H   0  0  0  0  0  0  0  0  0  0  0  0
    4.2035    0.7190   -2.8978 H   0  0  0  0  0  0  0  0  0  0  0  0
    2.7834    0.7243   -4.0255 H   0  0  0  0  0  0  0  0  0  0  0  0
    2.5887    2.5814   -2.9557 H   0  0  0  0  0  0  0  0  0  0  0  0
    3.5528    0.5965    0.9539 H   0  0  0  0  0  0  0  0  0  0  0  0
    4.3264   -1.2732   -0.7150 H   0  0  0  0  0  0  0  0  0  0  0  0
    0.5429   -0.0719   -4.5514 H   0  0  0  0  0  0  0  0  0  0  0  0
    1.1760    0.7844   -2.8224 H   0  0  0  0  0  0  0  0  0  0  0  0
   -0.4714    1.0175   -3.5526 H   0  0  0  0  0  0  0  0  0  0  0  0
   -0.3535    0.3380    0.0697 H   0  0  0  0  0  0  0  0  0  0  0  0
   -0.3268    2.0163    0.7089 H   0  0  0  0  0  0  0  0  0  0  0  0
   -0.3261   -3.0053   -1.2607 H   0  0  0  0  0  0  0  0  0  0  0  0
    0.8355   -0.8720   -0.8937 H   0  0  0  0  0  0  0  0  0  0  0  0
    4.3806   -2.0221    0.9593 H   0  0  0  0  0  0  0  0  0  0  0  0
    4.2675   -4.0873   -0.8892 H   0  0  0  0  0  0  0  0  0  0  0  0
    3.3762   -4.3618    0.9253 H   0  0  0  0  0  0  0  0  0  0  0  0
    0.5396   -3.0109    0.3342 H   0  0  0  0  0  0  0  0  0  0  0  0
    1.1769   -5.4301   -0.4130 H   0  0  0  0  0  0  0  0  0  0  0  0
    1.4333   -2.0640    3.2745 H   0  0  0  0  0  0  0  0  0  0  0  0
    0.9867    1.1581    2.7611 H   0  0  0  0  0  0  0  0  0  0  0  0
   -1.3361   -1.5633    2.8902 H   0  0  0  0  0  0  0  0  0  0  0  0
   -1.2247   -1.4634   -0.4487 H   0  0  0  0  0  0  0  0  0  0  0  0
   -1.2321   -1.4423   -0.4283 H   0  0  0  0  0  0  0  0  0  0  0  0
   -1.1901   -4.9633    1.3331 H   0  0  0  0  0  0  0  0  0  0  0  0
    0.6581   -4.1716    2.9831 H   0  0  0  0  0  0  0  0  0  0  0  0
   -0.7097   -3.5764    3.4646 H   0  0  0  0  0  0  0  0  0  0  0  0
    1.3772   -4.5053    1.1279 H   0  0  0  0  0  0  0  0  0  0  0  0
    1.2966   -4.4533    1.2070 H   0  0  0  0  0  0  0  0  0  0  0  0
    0.3493   -4.5887   -2.5553 H   0  0  0  0  0  0  0  0  0  0  0  0
    0.0169   -4.3810   -2.4260 H   0  0  0  0  0  0  0  0  0  0  0  0
   -1.6341   -5.7434   -0.7140 H   0  0  0  0  0  0  0  0  0  0  0  0
   -1.0529   -7.2928   -2.6981 H   0  0  0  0  0  0  0  0  0  0  0  0
    1.3204   -7.6213   -3.4493 H   0  0  0  0  0  0  0  0  0  0  0  0
    1.2183   -6.3722   -2.9402 H   0  0  0  0  0  0  0  0  0  0  0  0
    1.4638   -8.7520   -0.6091 H   0  0  0  0  0  0  0  0  0  0  0  0
   -0.4350   -9.0059    0.2331 H   0  0  0  0  0  0  0  0  0  0  0  0
   -0.3818   -8.5952    1.2896 H   0  0  0  0  0  0  0  0  0  0  0  0
   -2.8022   -7.7056    0.8269 H   0  0  0  0  0  0  0  0  0  0  0  0
   -2.6338   -6.8643    1.1985 H   0  0  0  0  0  0  0  0  0  0  0  0
    2.7301   -8.4307    1.0041 H   0  0  0  0  0  0  0  0  0  0  0  0
    2.5458   -9.5525    3.2251 H   0  0  0  0  0  0  0  0  0  0  0  0
    4.0581   -5.9268    2.2222 H   0  0  0  0  0  0  0  0  0  0  0  0
    4.9591   -7.0516    1.2111 H   0  0  0  0  0  0  0  0  0  0  0  0
    0.9990   -6.0669    2.1519 H   0  0  0  0  0  0  0  0  0  0  0  0
    3.2094   -5.9167    0.0437 H   0  0  0  0  0  0  0  0  0  0  0  0
    2.6867   -6.0225   -1.7367 H   0  0  0  0  0  0  0  0  0  0  0  0
    3.0102   -5.3678   -1.0273 H   0  0  0  0  0  0  0  0  0  0  0  0
    1.1437   -9.9120   -1.8480 H   0  0  0  0  0  0  0  0  0  0  0  0
   -3.4928   -2.8779    0.4021 H   0  0  0  0  0  0  0  0  0  0  0  0
   -2.8531   -1.9144    1.7363 H   0  0  0  0  0  0  0  0  0  0  0  0
   -3.0943   -1.2137   -0.0098 H   0  0  0  0  0  0  0  0  0  0  0  0
   -1.2487   -0.1194    1.6179 H   0  0  0  0  0  0  0  0  0  0  0  0
    1.1516   -0.4106    2.6579 H   0  0  0  0  0  0  0  0  0  0  0  0
   -0.4250    0.3316    1.9406 H   0  0  0  0  0  0  0  0  0  0  0  0
    2.2159   -2.7291    0.2824 H   0  0  0  0  0  0  0  0  0  0  0  0
    2.5151   -2.3108   -0.9330 H   0  0  0  0  0  0  0  0  0  0  0  0
    2.6747   -3.4567   -1.4366 H   0  0  0  0  0  0  0  0  0  0  0  0
    3.0313   -2.9132   -4.0824 H   0  0  0  0  0  0  0  0  0  0  0  0
    1.6994   -1.6932   -4.4078 H   0  0  0  0  0  0  0  0  0  0  0  0
  1  2  1  0  0  0  0
  1 56  1  0  0  0  0
  1 57  1  0  0  0  0
  1 58  1  0  0  0  0
  2  3  1  0  0  0  0
  2  7  1  0  0  0  0
  2 59  1  1  0  0  0
  3  4  1  0  0  0  0
  3 60  1  1  0  0  0
  3 55  1  0  0  0  0
  4  5  1  0  0  0  0
  4 61  1  1  0  0  0
  4 54  1  0  0  0  0
  5  6  1  0  0  0  0
  5 62  1  0  0  0  0
  5 63  1  0  0  0  0
  6  7  1  0  0  0  0
  6  8  1  0  0  0  0
  6 64  1  6  0  0  0
  8  9  1  0  0  0  0
  9 10  1  0  0  0  0
  9 14  1  0  0  0  0
  9 65  1  1  0  0  0
 10 11  1  0  0  0  0
 10 66  1  1  0  0  0
 10 53  1  0  0  0  0
 11 12  1  0  0  0  0
 12 13  1  0  0  0  0
 12 67  1  6  0  0  0
 12 16  1  0  0  0  0
 13 14  1  0  0  0  0
 13 68  1  0  0  0  0
 13 69  1  0  0  0  0
 14 70  1  1  0  0  0
 14 15  1  0  0  0  0
 15 71  1  0  0  0  0
 16 17  1  0  0  0  0
 17 18  1  0  0  0  0
 17 22  1  0  0  0  0
 17 72  1  1  0  0  0
 18 19  1  0  0  0  0
 18 73  1  6  0  0  0
 18 52  1  0  0  0  0
 19 20  1  0  0  0  0
 20 21  1  0  0  0  0
 20 74  1  1  0  0  0
 20 24  1  0  0  0  0
 21 22  1  0  0  0  0
 21 75  1  0  0  0  0
 21 76  1  0  0  0  0
 22 77  1  1  0  0  0
 22 23  1  0  0  0  0
 23 78  1  0  0  0  0
 24 25  1  0  0  0  0
 25 26  1  0  0  0  0
 25 30  1  0  0  0  0
 25 79  1  1  0  0  0
 26 27  1  0  0  0  0
 26 80  1  0  0  0  0
 26 81  1  0  0  0  0
 27 28  1  0  0  0  0
 27 82  1  0  0  0  0
 27 83  1  0  0  0  0
 28 29  1  0  0  0  0
 28 34  1  0  0  0  0
 28 51  1  6  0  0  0
 29 30  1  0  0  0  0
 29 31  1  0  0  0  0
 29 84  1  6  0  0  0
 30 85  1  0  0  0  0
 30 86  1  0  0  0  0
 31 32  1  0  0  0  0
 31 87  1  0  0  0  0
 31 88  1  0  0  0  0
 32 33  1  0  0  0  0
 32 89  1  0  0  0  0
 32 90  1  0  0  0  0
 33 34  1  0  0  0  0
 33 38  1  0  0  0  0
 33 91  1  6  0  0  0
 34 35  1  0  0  0  0
 34 92  1  6  0  0  0
 35 36  1  0  0  0  0
 35 93  1  0  0  0  0
 35 94  1  0  0  0  0
 36 37  1  0  0  0  0
 36 50  1  0  0  0  0
 36 95  1  1  0  0  0
 37 38  1  0  0  0  0
 37 41  1  0  0  0  0
 37 49  1  6  0  0  0
 38 39  1  0  0  0  0
 38 48  1  1  0  0  0
 39 40  1  0  0  0  0
 39 96  1  0  0  0  0
 39 97  1  0  0  0  0
 40 41  1  0  0  0  0
 40 98  1  0  0  0  0
 40 99  1  0  0  0  0
 41100  1  6  0  0  0
 41 42  1  0  0  0  0
 42 43  2  0  0  0  0
 42 47  1  0  0  0  0
 43 44  1  0  0  0  0
 43101  1  0  0  0  0
 44 45  2  0  0  0  0
 44 46  1  0  0  0  0
 46 47  1  0  0  0  0
 47102  1  0  0  0  0
 47103  1  0  0  0  0
 48104  1  0  0  0  0
 49105  1  0  0  0  0
 49106  1  0  0  0  0
 49107  1  0  0  0  0
 50108  1  0  0  0  0
 51109  1  0  0  0  0
 51110  1  0  0  0  0
 51111  1  0  0  0  0
 52112  1  0  0  0  0
 52113  1  0  0  0  0
 52114  1  0  0  0  0
 53115  1  0  0  0  0
 53116  1  0  0  0  0
 53117  1  0  0  0  0
 54118  1  0  0  0  0
 55119  1  0  0  0  0
M  END
$$$$

 OpenBabel05152416213D

 85 90  0  0  1  0  0  0  0  0999 V2000
   -0.0732    4.7032   -2.5787 C   0  0  0  0  0  0  0  0  0  0  0  0
   -0.1332    3.4188   -2.5713 C   0  0  1  0  0  0  0  0  0  0  0  0
   -2.2126    2.9607   -1.7090 C   0  0  1  0  0  0  0  0  0  0  0  0
   -3.2560    1.1285   -2.2248 C   0  0  2  0  0  0  0  0  0  0  0  0
   -2.6292    0.3891   -4.3005 C   0  0  2  0  0  0  0  0  0  0  0  0
    0.3936    0.4604   -4.2509 C   0  0  1  0  0  0  0  0  0  0  0  0
    0.9108    2.4582   -3.9700 O   0  0  0  0  0  0  0  0  0  0  0  0
    0.8503   -0.4513   -3.4440 O   0  0  0  0  0  0  0  0  0  0  0  0
   -0.5057   -0.8040   -3.1359 C   0  0  1  0  0  0  0  0  0  0  0  0
   -2.6098   -1.9526   -4.9436 C   0  0  0  0  0  0  0  0  0  0  0  0
   -3.6739   -1.8774   -4.4059 C   0  0  2  0  0  0  0  0  0  0  0  0
   -2.0189   -2.1379   -4.0340 C   0  0  2  0  0  0  0  0  0  0  0  0
   -0.5133   -1.5011   -5.4141 C   0  0  2  0  0  0  0  0  0  0  0  0
   -0.8590    0.2695   -6.0803 C   0  0  1  0  0  0  0  0  0  0  0  0
   -1.0908    1.9913   -4.6114 C   0  0  0  0  0  0  0  0  0  0  0  0
   -1.2078    1.4658   -3.1853 C   0  0  0  0  0  0  0  0  0  0  0  0
   -1.7559   -0.9182   -2.6435 C   0  0  2  0  0  0  0  0  0  0  0  0
   -0.6106   -1.2018   -1.7899 C   0  0  0  0  0  0  0  0  0  0  0  0
   -2.8136   -1.3846   -1.7208 O   0  0  0  0  0  0  0  0  0  0  0  0
    0.3308    0.4238   -6.7936 C   0  0  1  0  0  0  0  0  0  0  0  0
    1.9487    0.3339   -6.1883 C   0  0  0  0  0  0  0  0  0  0  0  0
    2.7271    0.6035   -7.2608 C   0  0  0  0  0  0  0  0  0  0  0  0
    1.6310    0.1851   -8.3980 C   0  0  1  0  0  0  0  0  0  0  0  0
    0.3109   -0.4752   -7.8756 C   0  0  1  0  0  0  0  0  0  0  0  0
    0.5440   -1.9557   -7.3169 C   0  0  0  0  0  0  0  0  0  0  0  0
   -0.4798   -2.4232   -6.4219 C   0  0  1  0  0  0  0  0  0  0  0  0
   -0.3842   -3.7263   -5.8789 O   0  0  0  0  0  0  0  0  0  0  0  0
   -1.0908   -0.3708   -8.6827 C   0  0  0  0  0  0  0  0  0  0  0  0
    1.3074    1.4774   -9.2053 C   0  0  0  0  0  0  0  0  0  0  0  0
    1.1226    1.6422  -10.4921 C   0  0  0  0  0  0  0  0  0  0  0  0
    1.0947    3.1020  -10.6597 C   0  0  0  0  0  0  0  0  0  0  0  0
    1.0295    3.7065  -11.6973 O   0  0  0  0  0  0  0  0  0  0  0  0
    1.2887    3.7618   -9.5477 O   0  0  0  0  0  0  0  0  0  0  0  0
    1.2811    2.8736   -8.5856 C   0  0  0  0  0  0  0  0  0  0  0  0
   -0.0819    1.6536   -6.9966 O   0  0  0  0  0  0  0  0  0  0  0  0
   -1.7650   -3.4797   -3.2892 C   0  0  0  0  0  0  0  0  0  0  0  0
   -0.4568   -3.6902   -2.8418 O   0  0  0  0  0  0  0  0  0  0  0  0
   -4.7792   -1.9510   -3.7133 O   0  0  0  0  0  0  0  0  0  0  0  0
   -3.3211    0.9502   -5.4152 O   0  0  0  0  0  0  0  0  0  0  0  0
   -4.4681    0.9004   -2.0940 O   0  0  0  0  0  0  0  0  0  0  0  0
   -2.0557    2.6194   -0.3661 O   0  0  0  0  0  0  0  0  0  0  0  0
   -0.9033    4.6796   -3.3157 H   0  0  0  0  0  0  0  0  0  0  0  0
   -0.3919    4.6431   -1.4955 H   0  0  0  0  0  0  0  0  0  0  0  0
    0.9677    4.5672   -2.9003 H   0  0  0  0  0  0  0  0  0  0  0  0
    0.5247    2.9731   -1.6861 H   0  0  0  0  0  0  0  0  0  0  0  0
   -2.9921    3.4324   -2.3407 H   0  0  0  0  0  0  0  0  0  0  0  0
   -2.5253    0.6115   -1.3265 H   0  0  0  0  0  0  0  0  0  0  0  0
   -2.0528   -0.0788   -4.5528 H   0  0  0  0  0  0  0  0  0  0  0  0
    0.7512    1.0955   -4.7440 H   0  0  0  0  0  0  0  0  0  0  0  0
   -0.0077   -0.0431   -2.1506 H   0  0  0  0  0  0  0  0  0  0  0  0
   -3.3996   -2.2385   -5.9833 H   0  0  0  0  0  0  0  0  0  0  0  0
   -2.9708   -1.8734   -6.1647 H   0  0  0  0  0  0  0  0  0  0  0  0
   -4.1656   -0.9707   -4.9049 H   0  0  0  0  0  0  0  0  0  0  0  0
    0.4112   -1.8187   -4.9124 H   0  0  0  0  0  0  0  0  0  0  0  0
   -1.7523    0.2583   -6.6176 H   0  0  0  0  0  0  0  0  0  0  0  0
   -1.2365    3.0167   -5.0756 H   0  0  0  0  0  0  0  0  0  0  0  0
    0.0496    1.5462   -2.8203 H   0  0  0  0  0  0  0  0  0  0  0  0
   -2.1699    2.2432   -3.6884 H   0  0  0  0  0  0  0  0  0  0  0  0
   -1.5351    1.4596   -2.6671 H   0  0  0  0  0  0  0  0  0  0  0  0
    0.0877   -1.9669   -1.7540 H   0  0  0  0  0  0  0  0  0  0  0  0
   -0.7545   -0.7970   -0.6856 H   0  0  0  0  0  0  0  0  0  0  0  0
   -3.7850   -1.2643   -1.9238 H   0  0  0  0  0  0  0  0  0  0  0  0
    2.3648    1.1593   -5.3761 H   0  0  0  0  0  0  0  0  0  0  0  0
    2.0865   -0.6052   -5.5651 H   0  0  0  0  0  0  0  0  0  0  0  0
    3.6474    0.6843   -6.5533 H   0  0  0  0  0  0  0  0  0  0  0  0
    3.3325   -0.2267   -7.2634 H   0  0  0  0  0  0  0  0  0  0  0  0
    2.1077   -0.6333   -8.8871 H   0  0  0  0  0  0  0  0  0  0  0  0
    0.4209   -2.6657   -8.0840 H   0  0  0  0  0  0  0  0  0  0  0  0
    1.4531   -2.0822   -6.7289 H   0  0  0  0  0  0  0  0  0  0  0  0
   -1.3296   -2.2563   -6.9590 H   0  0  0  0  0  0  0  0  0  0  0  0
   -1.2783   -4.1494   -6.0098 H   0  0  0  0  0  0  0  0  0  0  0  0
   -2.0669   -0.7104   -8.1926 H   0  0  0  0  0  0  0  0  0  0  0  0
   -1.3116    0.7113   -8.8741 H   0  0  0  0  0  0  0  0  0  0  0  0
   -1.1563   -1.1074   -9.4463 H   0  0  0  0  0  0  0  0  0  0  0  0
    1.0918    0.8824  -11.2575 H   0  0  0  0  0  0  0  0  0  0  0  0
    2.1315    2.9268   -7.8804 H   0  0  0  0  0  0  0  0  0  0  0  0
    0.2783    3.2055   -8.2159 H   0  0  0  0  0  0  0  0  0  0  0  0
    0.6800    2.0898   -6.6174 H   0  0  0  0  0  0  0  0  0  0  0  0
   -2.5909   -3.4885   -2.5675 H   0  0  0  0  0  0  0  0  0  0  0  0
   -1.9633   -4.0393   -4.1317 H   0  0  0  0  0  0  0  0  0  0  0  0
    0.1978   -3.1466   -3.3664 H   0  0  0  0  0  0  0  0  0  0  0  0
   -4.5082   -2.7226   -3.2849 H   0  0  0  0  0  0  0  0  0  0  0  0
   -3.1434    1.9036   -5.5687 H   0  0  0  0  0  0  0  0  0  0  0  0
   -4.3798    0.6710   -3.0448 H   0  0  0  0  0  0  0  0  0  0  0  0
   -1.3122    1.9232   -0.3871 H   0  0  0  0  0  0  0  0  0  0  0  0
  1  2  1  0  0  0  0
  1 42  1  0  0  0  0
  1 43  1  0  0  0  0
  1 44  1  0  0  0  0
  2  3  1  0  0  0  0
  2  7  1  0  0  0  0
  2 45  1  1  0  0  0
  3  4  1  0  0  0  0
  3 41  1  0  0  0  0
  3 46  1  6  0  0  0
  4  5  1  0  0  0  0
  4 40  1  0  0  0  0
  4 47  1  1  0  0  0
  5  6  1  0  0  0  0
  5 39  1  0  0  0  0
  5 48  1  6  0  0  0
  6  7  1  0  0  0  0
  6  8  1  0  0  0  0
  6 49  1  6  0  0  0
  9 10  1  0  0  0  0
  9 18  1  0  0  0  0
  9 50  1  1  0  0  0
  9  8  1  0  0  0  0
 10 11  1  0  0  0  0
 10 51  1  0  0  0  0
 10 52  1  0  0  0  0
 11 12  1  0  0  0  0
 11 38  1  0  0  0  0
 11 53  1  1  0  0  0
 12 13  1  0  0  0  0
 12 17  1  0  0  0  0
 12 36  1  6  0  0  0
 13 14  1  0  0  0  0
 13 26  1  0  0  0  0
 13 54  1  1  0  0  0
 14 15  1  0  0  0  0
 14 20  1  0  0  0  0
 14 55  1  6  0  0  0
 15 16  1  0  0  0  0
 15 56  1  0  0  0  0
 15 57  1  0  0  0  0
 16 17  1  0  0  0  0
 16 58  1  0  0  0  0
 16 59  1  0  0  0  0
 17 18  1  0  0  0  0
 17 19  1  1  0  0  0
 18 60  1  0  0  0  0
 18 61  1  0  0  0  0
 19 62  1  0  0  0  0
 20 21  1  0  0  0  0
 20 24  1  0  0  0  0
 20 35  1  6  0  0  0
 21 22  1  0  0  0  0
 21 63  1  0  0  0  0
 21 64  1  0  0  0  0
 22 23  1  0  0  0  0
 22 65  1  0  0  0  0
 22 66  1  0  0  0  0
 23 24  1  0  0  0  0
 23 29  1  0  0  0  0
 23 67  1  6  0  0  0
 24 25  1  0  0  0  0
 24 28  1  6  0  0  0
 25 26  1  0  0  0  0
 25 68  1  0  0  0  0
 25 69  1  0  0  0  0
 26 70  1  6  0  0  0
 26 27  1  0  0  0  0
 27 71  1  0  0  0  0
 28 72  1  0  0  0  0
 28 73  1  0  0  0  0
 28 74  1  0  0  0  0
 29 30  2  0  0  0  0
 29 34  1  0  0  0  0
 30 31  1  0  0  0  0
 30 75  1  0  0  0  0
 31 32  2  0  0  0  0
 31 33  1  0  0  0  0
 33 34  1  0  0  0  0
 34 76  1  0  0  0  0
 34 77  1  0  0  0  0
 35 78  1  0  0  0  0
 36 37  1  0  0  0  0
 36 79  1  0  0  0  0
 36 80  1  0  0  0  0
 37 81  1  0  0  0  0
 38 82  1  0  0  0  0
 39 83  1  0  0  0  0
 40 84  1  0  0  0  0
 41 85  1  0  0  0  0
M  END
$$$$

 OpenBabel05152416213D

 43 44  0  0  1  0  0  0  0  0999 V2000
    0.4947    0.9513    2.2900 C   0  0  0  0  0  0  0  0  0  0  0  0
    0.3940    1.1300    0.7848 C   0  0  1  0  0  0  0  0  0  0  0  0
   -1.0368    1.1121    0.1323 C   0  0  0  0  0  0  0  0  0  0  0  0
   -1.0007    1.3855   -1.4079 C   0  0  1  0  0  0  0  0  0  0  0  0
   -0.1930    2.6401   -1.5768 C   0  0  0  0  0  0  0  0  0  0  0  0
   -0.6849    3.6288   -2.1088 O   0  0  0  0  0  0  0  0  0  0  0  0
    1.1936    2.6994   -0.9638 C   0  0  1  0  0  0  0  0  0  0  0  0
    1.0788    2.4796    0.5057 C   0  0  0  0  0  0  0  0  0  0  0  0
    2.1505    1.6637   -1.6332 C   0  0  1  0  0  0  0  0  0  0  0  0
    2.2526    2.1000   -3.1124 C   0  0  0  0  0  0  0  0  0  0  0  0
    3.1051    3.4272   -3.3566 C   0  0  0  0  0  0  0  0  0  0  0  0
    2.7294    4.7231   -4.1288 C   0  0  0  0  0  0  0  0  0  0  0  0
    2.2009    5.8606   -3.2823 C   0  0  0  0  0  0  0  0  0  0  0  0
    1.4082    6.6679   -3.7809 O   0  0  0  0  0  0  0  0  0  0  0  0
    2.5645    6.0412   -1.9927 N   0  0  0  0  0  0  0  0  0  0  0  0
    3.3527    5.1178   -1.3709 C   0  0  0  0  0  0  0  0  0  0  0  0
    3.4274    5.1581   -0.1468 O   0  0  0  0  0  0  0  0  0  0  0  0
    3.9151    3.9426   -2.1345 C   0  0  0  0  0  0  0  0  0  0  0  0
    3.3991    1.2043   -1.0825 O   0  0  0  0  0  0  0  0  0  0  0  0
   -0.5306    0.1899   -2.3092 C   0  0  0  0  0  0  0  0  0  0  0  0
    1.5861    0.8805    2.5295 H   0  0  0  0  0  0  0  0  0  0  0  0
    0.0101    0.0178    2.6157 H   0  0  0  0  0  0  0  0  0  0  0  0
    0.0946    1.8362    2.8306 H   0  0  0  0  0  0  0  0  0  0  0  0
    0.9418    0.2672    0.3674 H   0  0  0  0  0  0  0  0  0  0  0  0
   -1.5552    0.1517    0.3093 H   0  0  0  0  0  0  0  0  0  0  0  0
   -1.6314    1.9322    0.5979 H   0  0  0  0  0  0  0  0  0  0  0  0
   -2.0254    1.5971   -1.7903 H   0  0  0  0  0  0  0  0  0  0  0  0
    1.4997    3.7237   -1.1131 H   0  0  0  0  0  0  0  0  0  0  0  0
    0.4782    3.3118    0.9496 H   0  0  0  0  0  0  0  0  0  0  0  0
    2.1001    2.5441    0.9372 H   0  0  0  0  0  0  0  0  0  0  0  0
    1.6871    0.7517   -1.5087 H   0  0  0  0  0  0  0  0  0  0  0  0
    2.7216    1.2059   -3.5949 H   0  0  0  0  0  0  0  0  0  0  0  0
    1.2594    2.1609   -3.6113 H   0  0  0  0  0  0  0  0  0  0  0  0
    3.7435    2.9689   -4.1376 H   0  0  0  0  0  0  0  0  0  0  0  0
    3.7482    5.1040   -4.3918 H   0  0  0  0  0  0  0  0  0  0  0  0
    2.2178    4.6010   -5.1012 H   0  0  0  0  0  0  0  0  0  0  0  0
    2.2034    6.8185   -1.4348 H   0  0  0  0  0  0  0  0  0  0  0  0
    3.7787    3.2986   -1.3731 H   0  0  0  0  0  0  0  0  0  0  0  0
    5.0023    3.8253   -2.2219 H   0  0  0  0  0  0  0  0  0  0  0  0
    3.8423    1.7014   -0.3446 H   0  0  0  0  0  0  0  0  0  0  0  0
   -1.2434   -0.6348   -2.2301 H   0  0  0  0  0  0  0  0  0  0  0  0
   -0.4185    0.5341   -3.3642 H   0  0  0  0  0  0  0  0  0  0  0  0
    0.3614   -0.4133   -2.1148 H   0  0  0  0  0  0  0  0  0  0  0  0
  1 21  1  0  0  0  0
  1 22  1  0  0  0  0
  1 23  1  0  0  0  0
  2  3  1  0  0  0  0
  2  8  1  0  0  0  0
  2 24  1  6  0  0  0
  2  1  1  0  0  0  0
  3  4  1  0  0  0  0
  3 25  1  0  0  0  0
  3 26  1  0  0  0  0
  4  5  1  0  0  0  0
  4 20  1  0  0  0  0
  4 27  1  6  0  0  0
  5  6  2  0  0  0  0
  5  7  1  0  0  0  0
  7  8  1  0  0  0  0
  7  9  1  0  0  0  0
  7 28  1  6  0  0  0
  8 29  1  0  0  0  0
  8 30  1  0  0  0  0
  9 10  1  0  0  0  0
  9 19  1  0  0  0  0
  9 31  1  6  0  0  0
 10 11  1  0  0  0  0
 10 32  1  0  0  0  0
 10 33  1  0  0  0  0
 11 12  1  0  0  0  0
 11 18  1  0  0  0  0
 11 34  1  0  0  0  0
 12 13  1  0  0  0  0
 12 35  1  0  0  0  0
 12 36  1  0  0  0  0
 13 14  2  0  0  0  0
 13 15  1  0  0  0  0
 15 16  1  0  0  0  0
 15 37  1  0  0  0  0
 16 17  2  0  0  0  0
 16 18  1  0  0  0  0
 18 38  1  0  0  0  0
 18 39  1  0  0  0  0
 19 40  1  0  0  0  0
 20 41  1  0  0  0  0
 20 42  1  0  0  0  0
 20 43  1  0  0  0  0
M  END
$$$$

 OpenBabel05152416213D

 19 19  0  0  0  0  0  0  0  0999 V2000
    0.6147   -0.9629    0.2317 C   0  0  0  0  0  0  0  0  0  0  0  0
    1.2356    0.2668    0.5029 C   0  0  0  0  0  0  0  0  0  0  0  0
    1.0328    1.4730    0.0313 C   0  0  0  0  0  0  0  0  0  0  0  0
   -0.3990    1.5475   -0.2102 C   0  0  0  0  0  0  0  0  0  0  0  0
   -1.2276    0.3109   -0.2351 C   0  0  0  0  0  0  0  0  0  0  0  0
   -0.6347   -0.9628   -0.1750 C   0  0  0  0  0  0  0  0  0  0  0  0
   -2.9646    0.2412   -0.1777 Cl  0  0  0  0  0  0  0  0  0  0  0  0
    2.1631    2.4961    0.0623 N   0  0  0  0  0  0  0  0  0  0  0  0
    3.6604    2.3906    0.0646 N   0  0  0  0  0  0  0  0  0  0  0  0
    4.5246    1.3467    0.0209 C   0  0  0  0  0  0  0  0  0  0  0  0
    3.7659    0.0296    0.0285 C   0  0  0  0  0  0  0  0  0  0  0  0
    3.1365   -1.0631    0.0348 N   0  0  0  0  0  0  0  0  0  0  0  0
    6.0445    1.3483    0.0340 C   0  0  0  0  0  0  0  0  0  0  0  0
    7.3054    1.3496    0.0449 N   0  0  0  0  0  0  0  0  0  0  0  0
    1.0667   -1.9361    0.4497 H   0  0  0  0  0  0  0  0  0  0  0  0
    1.9926    0.3227    1.1992 H   0  0  0  0  0  0  0  0  0  0  0  0
   -0.8395    2.5199   -0.2660 H   0  0  0  0  0  0  0  0  0  0  0  0
   -1.0591   -1.9769   -0.1966 H   0  0  0  0  0  0  0  0  0  0  0  0
    1.8403    3.4656   -0.0364 H   0  0  0  0  0  0  0  0  0  0  0  0
  1  2  2  0  0  0  0
  1  6  1  0  0  0  0
  1 15  1  0  0  0  0
  2  3  1  0  0  0  0
  2 16  1  0  0  0  0
  3  4  2  0  0  0  0
  3  8  1  0  0  0  0
  4  5  1  0  0  0  0
  4 17  1  0  0  0  0
  5  6  2  0  0  0  0
  5  7  1  0  0  0  0
  6 18  1  0  0  0  0
  8  9  1  0  0  0  0
  8 19  1  0  0  0  0
  9 10  2  0  0  0  0
 10 11  1  0  0  0  0
 10 13  1  0  0  0  0
 11 12  3  0  0  0  0
 13 14  3  0  0  0  0
M  END
$$$$

 OpenBabel05152416213D

 66 65  0  0  0  0  0  0  0  0999 V2000
    0.0723    1.1856   -0.2826 B   0  5  0  0  0  0  0  0  0  0  0  0
   -0.6873   -0.0674   -0.1796 F   0  0  0  0  0  0  0  0  0  0  0  0
   -0.5711    2.2416    0.4238 F   0  0  0  0  0  0  0  0  0  0  0  0
    0.1021    1.4278   -1.6799 F   0  0  0  0  0  0  0  0  0  0  0  0
    1.4588    1.1897    0.2232 F   0  0  0  0  0  0  0  0  0  0  0  0
    1.8030   -1.1737   -0.4540 C   0  0  0  0  0  0  0  0  0  0  0  0
    1.1989   -1.3725    1.1339 C   0  0  0  0  0  0  0  0  0  0  0  0
    1.3872   -0.4932    2.4799 C   0  0  0  0  0  0  0  0  0  0  0  0
    0.6750    0.9184    2.7674 C   0  0  0  0  0  0  0  0  0  0  0  0
   -0.9003    0.8974    2.7267 C   0  0  0  0  0  0  0  0  0  0  0  0
   -1.4691    0.0579    3.8489 C   0  0  0  0  0  0  0  0  0  0  0  0
   -0.9908    0.6453    5.1859 C   0  0  0  0  0  0  0  0  0  0  0  0
   -1.4754    2.1175    5.3079 C   0  0  0  0  0  0  0  0  0  0  0  0
   -3.0183    2.1301    5.2623 C   0  0  0  0  0  0  0  0  0  0  0  0
   -3.5411    1.2324    6.4045 C   0  0  0  0  0  0  0  0  0  0  0  0
   -2.9937    1.7714    7.7473 C   0  0  0  0  0  0  0  0  0  0  0  0
   -3.4742    3.2268    7.9369 C   0  0  0  0  0  0  0  0  0  0  0  0
   -5.0077    3.2510    7.9126 C   0  0  0  0  0  0  0  0  0  0  0  0
   -5.5453    2.3534    9.0317 C   0  0  0  0  0  0  0  0  0  0  0  0
   -5.0730    2.8558   10.4308 C   0  0  0  0  0  0  0  0  0  0  0  0
   -5.5829    4.2836   10.6838 C   0  0  0  0  0  0  0  0  0  0  0  0
   -7.0355    4.3242   10.6638 N   0  0  0  0  0  0  0  0  0  0  0  0
   -7.8197    5.4113   10.6074 C   0  0  0  0  0  0  0  0  0  0  0  0
   -9.1433    5.0147   10.5696 C   0  0  0  0  0  0  0  0  0  0  0  0
   -9.1557    3.6639   10.6046 N   0  3  0  0  0  0  0  0  0  0  0  0
   -7.9117    3.2636   10.6813 C   0  0  0  0  0  0  0  0  0  0  0  0
  -10.3168    2.7773   10.5610 C   0  0  0  0  0  0  0  0  0  0  0  0
    1.7767   -0.3384   -1.1658 H   0  0  0  0  0  0  0  0  0  0  0  0
    1.1388   -1.6092   -1.2541 H   0  0  0  0  0  0  0  0  0  0  0  0
    2.8555   -0.8564   -0.6334 H   0  0  0  0  0  0  0  0  0  0  0  0
    0.1117   -1.4989    1.1724 H   0  0  0  0  0  0  0  0  0  0  0  0
    1.4354   -2.4235    1.4068 H   0  0  0  0  0  0  0  0  0  0  0  0
    0.9708   -1.1201    3.3144 H   0  0  0  0  0  0  0  0  0  0  0  0
    2.4544   -0.4079    2.7532 H   0  0  0  0  0  0  0  0  0  0  0  0
    1.0201    1.3253    3.7374 H   0  0  0  0  0  0  0  0  0  0  0  0
    1.0646    1.7802    2.2169 H   0  0  0  0  0  0  0  0  0  0  0  0
   -1.3130    1.9361    2.7499 H   0  0  0  0  0  0  0  0  0  0  0  0
   -1.3698    0.5148    1.8248 H   0  0  0  0  0  0  0  0  0  0  0  0
   -2.5791    0.0170    3.7606 H   0  0  0  0  0  0  0  0  0  0  0  0
   -1.1715   -0.9919    3.7205 H   0  0  0  0  0  0  0  0  0  0  0  0
   -1.3043   -0.0114    6.0101 H   0  0  0  0  0  0  0  0  0  0  0  0
    0.0926    0.5821    5.3316 H   0  0  0  0  0  0  0  0  0  0  0  0
   -1.0532    2.5833    6.2134 H   0  0  0  0  0  0  0  0  0  0  0  0
   -1.0676    2.8096    4.5509 H   0  0  0  0  0  0  0  0  0  0  0  0
   -3.3980    3.1665    5.3040 H   0  0  0  0  0  0  0  0  0  0  0  0
   -3.4342    1.8017    4.2948 H   0  0  0  0  0  0  0  0  0  0  0  0
   -4.6384    1.1536    6.3623 H   0  0  0  0  0  0  0  0  0  0  0  0
   -3.2814    0.1683    6.2854 H   0  0  0  0  0  0  0  0  0  0  0  0
   -3.2778    1.0981    8.5709 H   0  0  0  0  0  0  0  0  0  0  0  0
   -1.8952    1.7242    7.8339 H   0  0  0  0  0  0  0  0  0  0  0  0
   -3.0547    3.6537    8.8612 H   0  0  0  0  0  0  0  0  0  0  0  0
   -3.0823    3.9211    7.1727 H   0  0  0  0  0  0  0  0  0  0  0  0
   -5.3898    4.2819    7.9732 H   0  0  0  0  0  0  0  0  0  0  0  0
   -5.4321    2.9266    6.9436 H   0  0  0  0  0  0  0  0  0  0  0  0
   -6.6278    2.3179    8.8706 H   0  0  0  0  0  0  0  0  0  0  0  0
   -5.2725    1.2870    8.9177 H   0  0  0  0  0  0  0  0  0  0  0  0
   -5.4371    2.1836   11.2302 H   0  0  0  0  0  0  0  0  0  0  0  0
   -3.9703    2.8187   10.5271 H   0  0  0  0  0  0  0  0  0  0  0  0
   -5.2009    4.6876   11.6420 H   0  0  0  0  0  0  0  0  0  0  0  0
   -5.1725    4.9723    9.9107 H   0  0  0  0  0  0  0  0  0  0  0  0
   -7.4494    6.4341   10.5759 H   0  0  0  0  0  0  0  0  0  0  0  0
  -10.0113    5.6407   10.5123 H   0  0  0  0  0  0  0  0  0  0  0  0
   -7.6203    2.2208   10.7377 H   0  0  0  0  0  0  0  0  0  0  0  0
  -10.2497    2.1355    9.6540 H   0  0  0  0  0  0  0  0  0  0  0  0
  -10.3066    2.1283   11.4615 H   0  0  0  0  0  0  0  0  0  0  0  0
  -11.2489    3.3675   10.5267 H   0  0  0  0  0  0  0  0  0  0  0  0
  1  2  1  0  0  0  0
  1  3  1  0  0  0  0
  1  4  1  0  0  0  0
  1  5  1  0  0  0  0
  6  7  1  0  0  0  0
  6 28  1  0  0  0  0
  6 29  1  0  0  0  0
  6 30  1  0  0  0  0
  7  8  1  0  0  0  0
  7 31  1  0  0  0  0
  7 32  1  0  0  0  0
  8  9  1  0  0  0  0
  8 33  1  0  0  0  0
  8 34  1  0  0  0  0
  9 10  1  0  0  0  0
  9 35  1  0  0  0  0
  9 36  1  0  0  0  0
 10 11  1  0  0  0  0
 10 37  1  0  0  0  0
 10 38  1  0  0  0  0
 11 12  1  0  0  0  0
 11 39  1  0  0  0  0
 11 40  1  0  0  0  0
 12 13  1  0  0  0  0
 12 41  1  0  0  0  0
 12 42  1  0  0  0  0
 13 14  1  0  0  0  0
 13 43  1  0  0  0  0
 13 44  1  0  0  0  0
 14 15  1  0  0  0  0
 14 45  1  0  0  0  0
 14 46  1  0  0  0  0
 15 16  1  0  0  0  0
 15 47  1  0  0  0  0
 15 48  1  0  0  0  0
 16 17  1  0  0  0  0
 16 49  1  0  0  0  0
 16 50  1  0  0  0  0
 17 18  1  0  0  0  0
 17 51  1  0  0  0  0
 17 52  1  0  0  0  0
 18 19  1  0  0  0  0
 18 53  1  0  0  0  0
 18 54  1  0  0  0  0
 19 20  1  0  0  0  0
 19 55  1  0  0  0  0
 19 56  1  0  0  0  0
 20 21  1  0  0  0  0
 20 57  1  0  0  0  0
 20 58  1  0  0  0  0
 21 22  1  0  0  0  0
 21 59  1  0  0  0  0
 21 60  1  0  0  0  0
 22 23  1  0  0  0  0
 22 26  1  0  0  0  0
 23 24  2  0  0  0  0
 23 61  1  0  0  0  0
 24 25  1  0  0  0  0
 24 62  1  0  0  0  0
 25 26  2  0  0  0  0
 25 27  1  0  0  0  0
 26 63  1  0  0  0  0
 27 64  1  0  0  0  0
 27 65  1  0  0  0  0
 27 66  1  0  0  0  0
M  CHG  2   1  -1  25   1
M  END
$$$$

 OpenBabel05152416213D

 78 79  0  0  0  0  0  0  0  0999 V2000
    1.8333   -0.5029   -0.5918 C   0  0  0  0  0  0  0  0  0  0  0  0
    1.5103   -1.2807   -0.0288 C   0  0  0  0  0  0  0  0  0  0  0  0
    1.7462   -2.7383    1.3513 N   0  0  0  0  0  0  0  0  0  0  0  0
    0.7312   -4.2254    0.8855 C   0  0  0  0  0  0  0  0  0  0  0  0
    1.1489   -5.0650   -0.6390 C   0  0  0  0  0  0  0  0  0  0  0  0
    2.7917   -2.4913    0.8951 C   0  0  0  0  0  0  0  0  0  0  0  0
    3.1781   -2.8150   -0.5913 C   0  0  0  0  0  0  0  0  0  0  0  0
    2.5903   -2.2126   -1.9617 O   0  0  0  0  0  0  0  0  0  0  0  0
    1.0343   -1.8223   -2.5775 C   0  0  0  0  0  0  0  0  0  0  0  0
    0.6380   -1.8362   -3.5104 C   0  0  0  0  0  0  0  0  0  0  0  0
   -0.6587   -1.3473   -3.6014 C   0  0  0  0  0  0  0  0  0  0  0  0
   -1.6953   -1.1906   -2.4317 C   0  0  0  0  0  0  0  0  0  0  0  0
   -1.4707   -1.1882   -1.3962 C   0  0  0  0  0  0  0  0  0  0  0  0
   -0.5117   -1.5684   -1.4063 C   0  0  0  0  0  0  0  0  0  0  0  0
   -3.0847   -1.1315   -2.3818 C   0  0  0  0  0  0  0  0  0  0  0  0
   -3.6134   -1.1518   -3.5782 C   0  0  0  0  0  0  0  0  0  0  0  0
   -5.0371   -0.9786   -3.7635 C   0  0  0  0  0  0  0  0  0  0  0  0
   -5.7240   -1.7317   -4.6965 C   0  0  0  0  0  0  0  0  0  0  0  0
   -7.0232   -1.3559   -5.0224 C   0  0  0  0  0  0  0  0  0  0  0  0
   -7.7213   -0.4504   -4.2664 C   0  0  0  0  0  0  0  0  0  0  0  0
   -7.0417    0.2565   -3.3115 C   0  0  0  0  0  0  0  0  0  0  0  0
   -5.7170   -0.0067   -3.0605 C   0  0  0  0  0  0  0  0  0  0  0  0
   -2.8031   -1.3004   -5.1739 Cl  0  0  0  0  0  0  0  0  0  0  0  0
   -3.9901   -1.0732   -1.1253 C   0  0  0  0  0  0  0  0  0  0  0  0
   -4.9951   -1.9389   -0.9086 C   0  0  0  0  0  0  0  0  0  0  0  0
   -5.9555   -1.6008    0.0398 C   0  0  0  0  0  0  0  0  0  0  0  0
   -5.7510   -0.5927    0.9526 C   0  0  0  0  0  0  0  0  0  0  0  0
   -4.6900    0.2392    0.7622 C   0  0  0  0  0  0  0  0  0  0  0  0
   -3.8698   -0.0357   -0.2978 C   0  0  0  0  0  0  0  0  0  0  0  0
    0.5785    0.8993    0.5931 C   0  0  0  0  0  0  0  0  0  0  0  0
   -0.3605   -0.7554    0.7583 C   0  0  0  0  0  0  0  0  0  0  0  0
   -0.5622   -1.4045    1.9090 O   0  0  0  0  0  0  0  0  0  0  0  0
    0.8241   -2.9062   -0.8367 O   0  0  0  0  0  0  0  0  0  0  0  0
    0.3604    1.2537    1.7713 C   0  0  0  0  0  0  0  0  0  0  0  0
    1.0154    2.4463    1.3959 C   0  0  0  0  0  0  0  0  0  0  0  0
    0.5029    3.1861    0.0622 C   0  0  0  0  0  0  0  0  0  0  0  0
   -0.2863    4.0182    0.2279 O   0  0  0  0  0  0  0  0  0  0  0  0
    0.8092    2.6887   -1.1705 O   0  0  0  0  0  0  0  0  0  0  0  0
   -1.1846    1.2093    1.5962 C   0  0  0  0  0  0  0  0  0  0  0  0
   -1.7407    0.3482    2.3112 O   0  0  0  0  0  0  0  0  0  0  0  0
   -1.6999    1.4701    0.3724 O   0  0  0  0  0  0  0  0  0  0  0  0
    1.0381    0.3884    2.8520 O   0  0  0  0  0  0  0  0  0  0  0  0
    1.5827   -0.6538    1.2128 H   0  0  0  0  0  0  0  0  0  0  0  0
    1.5387    0.6955   -1.3602 H   0  0  0  0  0  0  0  0  0  0  0  0
    2.7010   -0.5211   -0.4021 H   0  0  0  0  0  0  0  0  0  0  0  0
   -1.1928   -2.4761    0.0992 H   0  0  0  0  0  0  0  0  0  0  0  0
    1.1244   -0.9120   -0.8236 H   0  0  0  0  0  0  0  0  0  0  0  0
    0.8878   -4.5798    1.5155 H   0  0  0  0  0  0  0  0  0  0  0  0
   -0.4872   -4.0070    0.7217 H   0  0  0  0  0  0  0  0  0  0  0  0
    1.8280   -4.7080   -0.8409 H   0  0  0  0  0  0  0  0  0  0  0  0
    0.5342   -5.4152   -0.9692 H   0  0  0  0  0  0  0  0  0  0  0  0
    0.8887   -4.5115   -2.1026 H   0  0  0  0  0  0  0  0  0  0  0  0
    3.0568   -1.4992    1.1775 H   0  0  0  0  0  0  0  0  0  0  0  0
    2.9766   -3.0701    1.6329 H   0  0  0  0  0  0  0  0  0  0  0  0
    4.1396   -2.8603   -0.5139 H   0  0  0  0  0  0  0  0  0  0  0  0
    3.1561   -3.6615   -0.6365 H   0  0  0  0  0  0  0  0  0  0  0  0
    1.2642   -2.2338   -4.0069 H   0  0  0  0  0  0  0  0  0  0  0  0
   -0.9311   -1.1842   -4.1977 H   0  0  0  0  0  0  0  0  0  0  0  0
   -1.9890   -1.0223   -0.3150 H   0  0  0  0  0  0  0  0  0  0  0  0
    0.2626   -2.4533    0.5909 H   0  0  0  0  0  0  0  0  0  0  0  0
   -5.2602   -2.6024   -5.1531 H   0  0  0  0  0  0  0  0  0  0  0  0
   -7.5003   -1.7456   -5.8753 H   0  0  0  0  0  0  0  0  0  0  0  0
   -8.7777   -0.3170   -4.4236 H   0  0  0  0  0  0  0  0  0  0  0  0
   -7.5277    1.0363   -2.7846 H   0  0  0  0  0  0  0  0  0  0  0  0
   -5.2142    0.5297   -2.2989 H   0  0  0  0  0  0  0  0  0  0  0  0
   -5.0512   -2.8498   -1.4818 H   0  0  0  0  0  0  0  0  0  0  0  0
   -6.8731   -2.1035    0.0700 H   0  0  0  0  0  0  0  0  0  0  0  0
   -6.4155   -0.4820    1.7866 H   0  0  0  0  0  0  0  0  0  0  0  0
   -4.5606    1.0920    1.3849 H   0  0  0  0  0  0  0  0  0  0  0  0
   -3.0853    0.4138   -0.6501 H   0  0  0  0  0  0  0  0  0  0  0  0
   -0.1253    0.5722   -0.7437 H   0  0  0  0  0  0  0  0  0  0  0  0
    2.1355    0.9198    0.6519 H   0  0  0  0  0  0  0  0  0  0  0  0
    0.2943   -3.3177   -1.0697 H   0  0  0  0  0  0  0  0  0  0  0  0
    0.6633    2.7491    2.2700 H   0  0  0  0  0  0  0  0  0  0  0  0
    2.1927    2.4084    1.5093 H   0  0  0  0  0  0  0  0  0  0  0  0
    0.4991    2.9274   -2.0263 H   0  0  0  0  0  0  0  0  0  0  0  0
   -2.5990    1.6867    0.5159 H   0  0  0  0  0  0  0  0  0  0  0  0
    0.5199    0.5959    3.5206 H   0  0  0  0  0  0  0  0  0  0  0  0
  1  2  1  0  0  0  0
  1 43  1  0  0  0  0
  1 44  1  0  0  0  0
  1 45  1  0  0  0  0
  2  3  1  0  0  0  0
  2 46  1  0  0  0  0
  2 47  1  0  0  0  0
  3  4  1  0  0  0  0
  3  6  1  0  0  0  0
  4  5  1  0  0  0  0
  4 48  1  0  0  0  0
  4 49  1  0  0  0  0
  5 50  1  0  0  0  0
  5 51  1  0  0  0  0
  5 52  1  0  0  0  0
  6  7  1  0  0  0  0
  6 53  1  0  0  0  0
  6 54  1  0  0  0  0
  7  8  1  0  0  0  0
  7 55  1  0  0  0  0
  7 56  1  0  0  0  0
  8  9  1  0  0  0  0
  9 10  2  0  0  0  0
  9 14  1  0  0  0  0
 10 11  1  0  0  0  0
 10 57  1  0  0  0  0
 11 12  2  0  0  0  0
 11 58  1  0  0  0  0
 12 13  1  0  0  0  0
 12 15  1  0  0  0  0
 13 14  2  0  0  0  0
 13 59  1  0  0  0  0
 14 60  1  0  0  0  0
 15 16  2  0  0  0  0
 15 24  1  0  0  0  0
 16 17  1  0  0  0  0
 16 23  1  0  0  0  0
 17 18  2  0  0  0  0
 17 22  1  0  0  0  0
 18 19  1  0  0  0  0
 18 61  1  0  0  0  0
 19 20  2  0  0  0  0
 19 62  1  0  0  0  0
 20 21  1  0  0  0  0
 20 63  1  0  0  0  0
 21 22  2  0  0  0  0
 21 64  1  0  0  0  0
 22 65  1  0  0  0  0
 24 25  2  0  0  0  0
 24 29  1  0  0  0  0
 25 26  1  0  0  0  0
 25 66  1  0  0  0  0
 26 27  2  0  0  0  0
 26 67  1  0  0  0  0
 27 28  1  0  0  0  0
 27 68  1  0  0  0  0
 28 29  2  0  0  0  0
 28 69  1  0  0  0  0
 29 70  1  0  0  0  0
 30 31  1  0  0  0  0
 30 34  1  0  0  0  0
 30 71  1  0  0  0  0
 30 72  1  0  0  0  0
 31 32  2  0  0  0  0
 31 33  1  0  0  0  0
 33 73  1  0  0  0  0
 34 35  1  0  0  0  0
 34 39  1  0  0  0  0
 34 42  1  0  0  0  0
 35 36  1  0  0  0  0
 35 74  1  0  0  0  0
 35 75  1  0  0  0  0
 36 37  2  0  0  0  0
 36 38  1  0  0  0  0
 38 76  1  0  0  0  0
 39 40  2  0  0  0  0
 39 41  1  0  0  0  0
 41 77  1  0  0  0  0
 42 78  1  0  0  0  0
M  END
$$$$

 OpenBabel05152416213D

 65 67  0  0  0  0  0  0  0  0999 V2000
    0.8721   -0.1504    0.3031 C   0  0  0  0  0  0  0  0  0  0  0  0
    0.4725    0.0089    1.6912 C   0  0  0  0  0  0  0  0  0  0  0  0
    1.0027    1.2612    2.1971 N   0  0  0  0  0  0  0  0  0  0  0  0
    0.1250    2.2498    2.6750 C   0  0  0  0  0  0  0  0  0  0  0  0
    0.3803    3.6180    2.3865 C   0  0  0  0  0  0  0  0  0  0  0  0
   -0.4953    4.6101    2.8493 C   0  0  0  0  0  0  0  0  0  0  0  0
   -1.6274    4.2108    3.5994 C   0  0  0  0  0  0  0  0  0  0  0  0
   -1.8768    2.8517    3.8254 C   0  0  0  0  0  0  0  0  0  0  0  0
   -1.0191    1.8784    3.4135 C   0  0  0  0  0  0  0  0  0  0  0  0
   -1.3898    0.4753    3.8751 C   0  0  0  0  0  0  0  0  0  0  0  0
   -2.5031    5.1583    4.1107 C   0  0  0  0  0  0  0  0  0  0  0  0
   -2.2336    6.5041    3.8671 C   0  0  0  0  0  0  0  0  0  0  0  0
   -3.0462    7.4733    4.3991 C   0  0  0  0  0  0  0  0  0  0  0  0
   -2.8808    8.8155    4.1582 C   0  0  0  0  0  0  0  0  0  0  0  0
   -1.8006    9.2222    3.2799 C   0  0  0  0  0  0  0  0  0  0  0  0
   -1.6005   10.4612    2.9199 N   0  0  0  0  0  0  0  0  0  0  0  0
   -2.4737   11.5603    3.2452 C   0  0  0  0  0  0  0  0  0  0  0  0
   -3.8236   11.3863    2.5017 C   0  0  0  0  0  0  0  0  0  0  0  0
   -0.9063    8.2453    2.7496 C   0  0  0  0  0  0  0  0  0  0  0  0
   -1.0855    6.8734    3.0355 C   0  0  0  0  0  0  0  0  0  0  0  0
   -0.2771    5.9161    2.5791 O   0  0  0  0  0  0  0  0  0  0  0  0
   -3.8936    9.6479    4.9758 C   0  0  0  0  0  0  0  0  0  0  0  0
   -3.7197    4.7435    4.8721 C   0  0  0  0  0  0  0  0  0  0  0  0
   -3.5480    3.9865    6.0482 C   0  0  0  0  0  0  0  0  0  0  0  0
   -4.6480    3.5056    6.7449 C   0  0  0  0  0  0  0  0  0  0  0  0
   -5.9326    3.8282    6.3205 C   0  0  0  0  0  0  0  0  0  0  0  0
   -6.1256    4.6257    5.1911 C   0  0  0  0  0  0  0  0  0  0  0  0
   -5.0334    5.0692    4.4259 C   0  0  0  0  0  0  0  0  0  0  0  0
   -5.3082    5.8297    3.1584 C   0  0  0  0  0  0  0  0  0  0  0  0
   -6.4484    6.1756    2.8963 O   0  0  0  0  0  0  0  0  0  0  0  0
   -4.2942    6.1294    2.2984 O   0  0  0  0  0  0  0  0  0  0  0  0
   -4.3876    6.8476    1.1265 C   0  0  0  0  0  0  0  0  0  0  0  0
   -5.1794    6.0537    0.1060 C   0  0  0  0  0  0  0  0  0  0  0  0
    2.4222    0.0744   -2.2672 Cl  0  0  0  0  0  0  0  0  0  0  0  0
    0.5143    0.7446   -0.2600 H   0  0  0  0  0  0  0  0  0  0  0  0
    0.4319   -1.0853   -0.0969 H   0  0  0  0  0  0  0  0  0  0  0  0
    1.9609   -0.2262    0.3974 H   0  0  0  0  0  0  0  0  0  0  0  0
   -0.6367    0.0184    1.6156 H   0  0  0  0  0  0  0  0  0  0  0  0
    0.8570   -0.8514    2.2799 H   0  0  0  0  0  0  0  0  0  0  0  0
    1.9959    1.4954    2.0430 H   0  0  0  0  0  0  0  0  0  0  0  0
    1.2455    3.8970    1.7942 H   0  0  0  0  0  0  0  0  0  0  0  0
   -2.7411    2.5037    4.3585 H   0  0  0  0  0  0  0  0  0  0  0  0
   -1.5075    0.4648    4.9719 H   0  0  0  0  0  0  0  0  0  0  0  0
   -2.3302    0.1624    3.3688 H   0  0  0  0  0  0  0  0  0  0  0  0
   -0.6404   -0.3111    3.7459 H   0  0  0  0  0  0  0  0  0  0  0  0
   -3.8531    7.1781    5.0379 H   0  0  0  0  0  0  0  0  0  0  0  0
   -2.5439   11.6317    4.3496 H   0  0  0  0  0  0  0  0  0  0  0  0
   -2.0338   12.5294    2.9419 H   0  0  0  0  0  0  0  0  0  0  0  0
   -4.2104   10.3419    2.5144 H   0  0  0  0  0  0  0  0  0  0  0  0
   -4.5895   12.0455    2.9660 H   0  0  0  0  0  0  0  0  0  0  0  0
   -3.7303   11.5783    1.4238 H   0  0  0  0  0  0  0  0  0  0  0  0
   -0.0789    8.5394    2.1090 H   0  0  0  0  0  0  0  0  0  0  0  0
   -3.3467   10.1631    5.7820 H   0  0  0  0  0  0  0  0  0  0  0  0
   -4.5742   10.3718    4.5224 H   0  0  0  0  0  0  0  0  0  0  0  0
   -4.6836    9.0206    5.4371 H   0  0  0  0  0  0  0  0  0  0  0  0
   -2.5510    3.7435    6.4022 H   0  0  0  0  0  0  0  0  0  0  0  0
   -4.5011    2.8780    7.6136 H   0  0  0  0  0  0  0  0  0  0  0  0
   -6.7858    3.4520    6.8648 H   0  0  0  0  0  0  0  0  0  0  0  0
   -7.1361    4.8673    4.8949 H   0  0  0  0  0  0  0  0  0  0  0  0
   -4.8419    7.8421    1.3257 H   0  0  0  0  0  0  0  0  0  0  0  0
   -3.3623    7.0202    0.7237 H   0  0  0  0  0  0  0  0  0  0  0  0
   -6.1934    5.8406    0.4942 H   0  0  0  0  0  0  0  0  0  0  0  0
   -5.2712    6.6278   -0.8361 H   0  0  0  0  0  0  0  0  0  0  0  0
   -4.6572    5.0910   -0.0815 H   0  0  0  0  0  0  0  0  0  0  0  0
    3.2341    0.1338   -1.1523 H   0  0  0  0  0  0  0  0  0  0  0  0
  1  2  1  0  0  0  0
  1 35  1  0  0  0  0
  1 36  1  0  0  0  0
  1 37  1  0  0  0  0
  2  3  1  0  0  0  0
  2 38  1  0  0  0  0
  2 39  1  0  0  0  0
  3  4  1  0  0  0  0
  3 40  1  0  0  0  0
  4  5  2  0  0  0  0
  4  9  1  0  0  0  0
  5  6  1  0  0  0  0
  5 41  1  0  0  0  0
  6  7  2  0  0  0  0
  6 21  1  0  0  0  0
  7  8  1  0  0  0  0
  7 11  1  0  0  0  0
  8  9  2  0  0  0  0
  8 42  1  0  0  0  0
  9 10  1  0  0  0  0
 10 43  1  0  0  0  0
 10 44  1  0  0  0  0
 10 45  1  0  0  0  0
 11 12  2  0  0  0  0
 11 23  1  0  0  0  0
 12 13  1  0  0  0  0
 12 20  1  0  0  0  0
 13 14  2  0  0  0  0
 13 46  1  0  0  0  0
 14 15  1  0  0  0  0
 14 22  1  0  0  0  0
 15 16  2  0  0  0  0
 15 19  1  0  0  0  0
 16 17  1  0  0  0  0
 17 18  1  0  0  0  0
 17 47  1  0  0  0  0
 17 48  1  0  0  0  0
 18 49  1  0  0  0  0
 18 50  1  0  0  0  0
 18 51  1  0  0  0  0
 19 20  2  0  0  0  0
 19 52  1  0  0  0  0
 20 21  1  0  0  0  0
 22 53  1  0  0  0  0
 22 54  1  0  0  0  0
 22 55  1  0  0  0  0
 23 24  2  0  0  0  0
 23 28  1  0  0  0  0
 24 25  1  0  0  0  0
 24 56  1  0  0  0  0
 25 26  2  0  0  0  0
 25 57  1  0  0  0  0
 26 27  1  0  0  0  0
 26 58  1  0  0  0  0
 27 28  2  0  0  0  0
 27 59  1  0  0  0  0
 28 29  1  0  0  0  0
 29 30  2  0  0  0  0
 29 31  1  0  0  0  0
 31 32  1  0  0  0  0
 32 33  1  0  0  0  0
 32 60  1  0  0  0  0
 32 61  1  0  0  0  0
 33 62  1  0  0  0  0
 33 63  1  0  0  0  0
 33 64  1  0  0  0  0
 34 65  1  0  0  0  0
M  END
$$$$

 OpenBabel05152416213D

 53 56  0  0  1  0  0  0  0  0999 V2000
    1.0251   -0.0107   -0.0409 C   0  0  0  0  0  0  0  0  0  0  0  0
    0.7635   -1.3207   -0.4308 O   0  0  0  0  0  0  0  0  0  0  0  0
    1.0430   -1.8766   -1.6528 C   0  0  0  0  0  0  0  0  0  0  0  0
    1.6173   -1.1779   -2.4834 O   0  0  0  0  0  0  0  0  0  0  0  0
    0.2214   -3.1086   -2.1567 C   0  0  2  0  0  0  0  0  0  0  0  0
   -1.1625   -3.0053   -1.4637 C   0  0  0  0  0  0  0  0  0  0  0  0
   -1.2549   -4.1927   -0.5597 C   0  0  0  0  0  0  0  0  0  0  0  0
   -0.2483   -5.0788   -0.7075 C   0  0  0  0  0  0  0  0  0  0  0  0
    0.5728   -4.5729   -1.7279 C   0  0  0  0  0  0  0  0  0  0  0  0
    0.8131   -5.4769   -2.5814 N   0  0  0  0  0  0  0  0  0  0  0  0
    0.9817   -5.1213   -3.8610 N   0  0  0  0  0  0  0  0  0  0  0  0
    0.0180   -4.1189   -4.3276 C   0  0  0  0  0  0  0  0  0  0  0  0
    0.1501   -2.9259   -3.5866 O   0  0  0  0  0  0  0  0  0  0  0  0
    2.2626   -5.2889   -4.3023 C   0  0  0  0  0  0  0  0  0  0  0  0
    2.7147   -4.4551   -5.0625 O   0  0  0  0  0  0  0  0  0  0  0  0
    3.0713   -6.3271   -3.7723 N   0  0  0  0  0  0  0  0  0  0  0  0
    2.4710   -7.4634   -3.0683 C   0  0  0  0  0  0  0  0  0  0  0  0
    1.2066   -7.9707   -3.4739 C   0  0  0  0  0  0  0  0  0  0  0  0
    0.5322   -8.9531   -2.7438 C   0  0  0  0  0  0  0  0  0  0  0  0
    1.1195   -9.5228   -1.6147 C   0  0  0  0  0  0  0  0  0  0  0  0
    2.4128   -9.1056   -1.2439 C   0  0  0  0  0  0  0  0  0  0  0  0
    3.0687   -8.0814   -1.9398 C   0  0  0  0  0  0  0  0  0  0  0  0
    0.4143  -10.4422   -0.8991 O   0  0  0  0  0  0  0  0  0  0  0  0
    0.8699  -11.0787    0.2406 C   0  0  0  0  0  0  0  0  0  0  0  0
    1.9698  -11.8548   -0.0765 F   0  0  0  0  0  0  0  0  0  0  0  0
    1.2090  -10.1459    1.2080 F   0  0  0  0  0  0  0  0  0  0  0  0
   -0.1214  -11.8937    0.7502 F   0  0  0  0  0  0  0  0  0  0  0  0
    4.4450   -6.2828   -3.9546 C   0  0  0  0  0  0  0  0  0  0  0  0
    4.9686   -5.3337   -4.5155 O   0  0  0  0  0  0  0  0  0  0  0  0
    5.2420   -7.3039   -3.5246 O   0  0  0  0  0  0  0  0  0  0  0  0
    6.6076   -7.3456   -3.7479 C   0  0  0  0  0  0  0  0  0  0  0  0
   -0.2398   -6.3391   -0.0816 C   0  0  0  0  0  0  0  0  0  0  0  0
   -1.2996   -6.6349    0.7846 C   0  0  0  0  0  0  0  0  0  0  0  0
   -2.3222   -5.6818    0.9812 C   0  0  0  0  0  0  0  0  0  0  0  0
   -2.2967   -4.4611    0.2939 C   0  0  0  0  0  0  0  0  0  0  0  0
   -3.6713   -6.0134    2.0356 Cl  0  0  0  0  0  0  0  0  0  0  0  0
    0.5897    0.1646    0.9685 H   0  0  0  0  0  0  0  0  0  0  0  0
    0.5537    0.7409   -0.7216 H   0  0  0  0  0  0  0  0  0  0  0  0
    2.1158    0.1651    0.0071 H   0  0  0  0  0  0  0  0  0  0  0  0
   -1.9773   -3.0395   -2.2062 H   0  0  0  0  0  0  0  0  0  0  0  0
   -1.2897   -2.1464   -0.7891 H   0  0  0  0  0  0  0  0  0  0  0  0
   -1.0285   -4.4742   -4.1415 H   0  0  0  0  0  0  0  0  0  0  0  0
    0.0724   -3.9417   -5.4222 H   0  0  0  0  0  0  0  0  0  0  0  0
    0.7157   -7.5655   -4.3460 H   0  0  0  0  0  0  0  0  0  0  0  0
   -0.4629   -9.2545   -3.0526 H   0  0  0  0  0  0  0  0  0  0  0  0
    2.9096   -9.5420   -0.3894 H   0  0  0  0  0  0  0  0  0  0  0  0
    4.0203   -7.7595   -1.5443 H   0  0  0  0  0  0  0  0  0  0  0  0
    6.8103   -7.3466   -4.8401 H   0  0  0  0  0  0  0  0  0  0  0  0
    7.1090   -6.4691   -3.2828 H   0  0  0  0  0  0  0  0  0  0  0  0
    7.0384   -8.2704   -3.3111 H   0  0  0  0  0  0  0  0  0  0  0  0
    0.5334   -7.0782   -0.2805 H   0  0  0  0  0  0  0  0  0  0  0  0
   -1.3414   -7.5978    1.2787 H   0  0  0  0  0  0  0  0  0  0  0  0
   -3.0775   -3.7283    0.3874 H   0  0  0  0  0  0  0  0  0  0  0  0
  1  2  1  0  0  0  0
  1 37  1  0  0  0  0
  1 38  1  0  0  0  0
  1 39  1  0  0  0  0
  2  3  1  0  0  0  0
  3  4  2  0  0  0  0
  5  3  1  1  0  0  0
  5  6  1  0  0  0  0
  5  9  1  0  0  0  0
  5 13  1  0  0  0  0
  6  7  1  0  0  0  0
  6 40  1  0  0  0  0
  6 41  1  0  0  0  0
  7  8  2  0  0  0  0
  7 35  1  0  0  0  0
  8  9  1  0  0  0  0
  8 32  1  0  0  0  0
  9 10  2  0  0  0  0
 10 11  1  0  0  0  0
 11 12  1  0  0  0  0
 11 14  1  0  0  0  0
 12 13  1  0  0  0  0
 12 42  1  0  0  0  0
 12 43  1  0  0  0  0
 14 15  2  0  0  0  0
 14 16  1  0  0  0  0
 16 17  1  0  0  0  0
 16 28  1  0  0  0  0
 17 18  2  0  0  0  0
 17 22  1  0  0  0  0
 18 19  1  0  0  0  0
 18 44  1  0  0  0  0
 19 20  2  0  0  0  0
 19 45  1  0  0  0  0
 20 21  1  0  0  0  0
 20 23  1  0  0  0  0
 21 22  2  0  0  0  0
 21 46  1  0  0  0  0
 22 47  1  0  0  0  0
 23 24  1  0  0  0  0
 24 25  1  0  0  0  0
 24 26  1  0  0  0  0
 24 27  1  0  0  0  0
 28 29  2  0  0  0  0
 28 30  1  0  0  0  0
 30 31  1  0  0  0  0
 31 48  1  0  0  0  0
 31 49  1  0  0  0  0
 31 50  1  0  0  0  0
 32 33  2  0  0  0  0
 32 51  1  0  0  0  0
 33 34  1  0  0  0  0
 33 52  1  0  0  0  0
 34 35  2  0  0  0  0
 34 36  1  0  0  0  0
 35 53  1  0  0  0  0
M  END
$$$$

 OpenBabel05152416213D

 32 31  0  0  0  0  0  0  0  0999 V2000
    0.9998    0.0095    0.0787 C   0  0  0  0  0  0  0  0  0  0  0  0
    0.4202   -1.0227    1.0562 C   0  0  0  0  0  0  0  0  0  0  0  0
    0.9979   -0.8405    2.4669 C   0  0  0  0  0  0  0  0  0  0  0  0
   -1.0621   -1.0078    1.0598 N   0  0  0  0  0  0  0  0  0  0  0  0
   -1.7458   -2.2449    0.6208 C   0  0  0  0  0  0  0  0  0  0  0  0
   -2.5630   -2.8840    1.7606 C   0  0  0  0  0  0  0  0  0  0  0  0
   -2.5619   -2.0222   -0.6678 C   0  0  0  0  0  0  0  0  0  0  0  0
   -1.7832    0.1148    1.4541 C   0  0  0  0  0  0  0  0  0  0  0  0
   -1.1987    1.1294    1.8097 O   0  0  0  0  0  0  0  0  0  0  0  0
   -3.6123    0.1392    1.4593 S   0  0  0  0  0  0  0  0  0  0  0  0
   -4.0530    1.7853    2.0654 C   0  0  0  0  0  0  0  0  0  0  0  0
   -3.5758    2.0039    3.4693 C   0  0  0  0  0  0  0  0  0  0  0  0
   -2.8018    3.0600    3.7480 C   0  0  0  0  0  0  0  0  0  0  0  0
   -2.2068    3.3875    5.3684 Cl  0  0  0  0  0  0  0  0  0  0  0  0
   -4.0633    0.8646    4.7288 Cl  0  0  0  0  0  0  0  0  0  0  0  0
    0.7259    1.0431    0.3599 H   0  0  0  0  0  0  0  0  0  0  0  0
    0.6306   -0.1984   -0.9475 H   0  0  0  0  0  0  0  0  0  0  0  0
    2.1105   -0.0543    0.0680 H   0  0  0  0  0  0  0  0  0  0  0  0
    0.8064   -2.0075    0.7062 H   0  0  0  0  0  0  0  0  0  0  0  0
    0.7222    0.1379    2.9021 H   0  0  0  0  0  0  0  0  0  0  0  0
    0.6291   -1.6510    3.1303 H   0  0  0  0  0  0  0  0  0  0  0  0
    2.1087   -0.8967    2.4360 H   0  0  0  0  0  0  0  0  0  0  0  0
   -1.0021   -3.0244    0.3443 H   0  0  0  0  0  0  0  0  0  0  0  0
   -3.3756   -2.2591    2.1538 H   0  0  0  0  0  0  0  0  0  0  0  0
   -3.0405   -3.8207    1.4088 H   0  0  0  0  0  0  0  0  0  0  0  0
   -1.8923   -3.1157    2.6142 H   0  0  0  0  0  0  0  0  0  0  0  0
   -1.8909   -1.6611   -1.4749 H   0  0  0  0  0  0  0  0  0  0  0  0
   -3.0387   -2.9706   -0.9867 H   0  0  0  0  0  0  0  0  0  0  0  0
   -3.3760   -1.2913   -0.5804 H   0  0  0  0  0  0  0  0  0  0  0  0
   -3.7137    2.5545    1.3409 H   0  0  0  0  0  0  0  0  0  0  0  0
   -5.1638    1.8140    2.0763 H   0  0  0  0  0  0  0  0  0  0  0  0
   -2.5249    3.7499    2.9563 H   0  0  0  0  0  0  0  0  0  0  0  0
  1  2  1  0  0  0  0
  1 16  1  0  0  0  0
  1 17  1  0  0  0  0
  1 18  1  0  0  0  0
  2  3  1  0  0  0  0
  2  4  1  0  0  0  0
  2 19  1  0  0  0  0
  3 20  1  0  0  0  0
  3 21  1  0  0  0  0
  3 22  1  0  0  0  0
  4  5  1  0  0  0  0
  4  8  1  0  0  0  0
  5  6  1  0  0  0  0
  5  7  1  0  0  0  0
  5 23  1  0  0  0  0
  6 24  1  0  0  0  0
  6 25  1  0  0  0  0
  6 26  1  0  0  0  0
  7 27  1  0  0  0  0
  7 28  1  0  0  0  0
  7 29  1  0  0  0  0
  8  9  2  0  0  0  0
  8 10  1  0  0  0  0
 10 11  1  0  0  0  0
 11 12  1  0  0  0  0
 11 30  1  0  0  0  0
 11 31  1  0  0  0  0
 12 13  2  0  0  0  0
 12 15  1  0  0  0  0
 13 14  1  0  0  0  0
 13 32  1  0  0  0  0
M  END
$$$$

 OpenBabel05152416213D

 38 39  0  0  0  0  0  0  0  0999 V2000
    0.7358   -0.4420   -0.5940 C   0  0  0  0  0  0  0  0  0  0  0  0
    0.3075   -1.8267   -0.2785 C   0  0  0  0  0  0  0  0  0  0  0  0
    1.0554   -2.4802    0.9315 C   0  0  0  0  0  0  0  0  0  0  0  0
    0.7450   -2.0193    2.2285 O   0  0  0  0  0  0  0  0  0  0  0  0
    1.1793   -0.7010    2.4634 C   0  0  0  0  0  0  0  0  0  0  0  0
    2.6745   -0.3698    2.3661 C   0  0  0  0  0  0  0  0  0  0  0  0
    3.2342    0.5258    1.5833 N   0  0  0  0  0  0  0  0  0  0  0  0
    2.6267    1.3958    0.5914 C   0  0  0  0  0  0  0  0  0  0  0  0
    1.5022    2.2347    0.8813 C   0  0  0  0  0  0  0  0  0  0  0  0
    0.8510    2.8693   -0.2000 C   0  0  0  0  0  0  0  0  0  0  0  0
    1.2780    2.7291   -1.5190 C   0  0  0  0  0  0  0  0  0  0  0  0
    2.4153    1.9834   -1.8091 C   0  0  0  0  0  0  0  0  0  0  0  0
    3.1078    1.3374   -0.7669 C   0  0  0  0  0  0  0  0  0  0  0  0
    0.3463    3.4823   -2.8057 Cl  0  0  0  0  0  0  0  0  0  0  0  0
    0.9642    2.5192    2.2915 C   0  0  0  0  0  0  0  0  0  0  0  0
   -0.0111    1.6722    2.7654 F   0  0  0  0  0  0  0  0  0  0  0  0
    2.0145    2.5698    3.1870 F   0  0  0  0  0  0  0  0  0  0  0  0
    0.3325    3.7409    2.3007 F   0  0  0  0  0  0  0  0  0  0  0  0
    3.4817   -1.0772    3.3291 N   0  0  0  0  0  0  0  0  0  0  0  0
    3.2184   -2.2613    3.8941 C   0  0  0  0  0  0  0  0  0  0  0  0
    4.2212   -2.5361    4.7864 C   0  0  0  0  0  0  0  0  0  0  0  0
    5.1007   -1.5153    4.7904 N   0  0  0  0  0  0  0  0  0  0  0  0
    4.6225   -0.6352    3.8798 C   0  0  0  0  0  0  0  0  0  0  0  0
    0.2095    0.2957    0.0238 H   0  0  0  0  0  0  0  0  0  0  0  0
    0.5027   -0.0556   -1.5966 H   0  0  0  0  0  0  0  0  0  0  0  0
    1.8196   -0.5634   -0.4970 H   0  0  0  0  0  0  0  0  0  0  0  0
   -0.7943   -1.8294   -0.1998 H   0  0  0  0  0  0  0  0  0  0  0  0
    0.6476   -2.3841   -1.1730 H   0  0  0  0  0  0  0  0  0  0  0  0
    0.7451   -3.5407    0.9139 H   0  0  0  0  0  0  0  0  0  0  0  0
    2.1597   -2.4831    0.8007 H   0  0  0  0  0  0  0  0  0  0  0  0
    0.5757   -0.1028    1.8698 H   0  0  0  0  0  0  0  0  0  0  0  0
    0.8964   -0.4573    3.5139 H   0  0  0  0  0  0  0  0  0  0  0  0
   -0.0329    3.4584   -0.0212 H   0  0  0  0  0  0  0  0  0  0  0  0
    2.7199    1.8657   -2.8500 H   0  0  0  0  0  0  0  0  0  0  0  0
    3.9423    0.7029   -1.0618 H   0  0  0  0  0  0  0  0  0  0  0  0
    2.3739   -2.9064    3.6878 H   0  0  0  0  0  0  0  0  0  0  0  0
    4.2910   -3.4259    5.3942 H   0  0  0  0  0  0  0  0  0  0  0  0
    5.0690    0.3228    3.6661 H   0  0  0  0  0  0  0  0  0  0  0  0
  1  2  1  0  0  0  0
  1 24  1  0  0  0  0
  1 25  1  0  0  0  0
  1 26  1  0  0  0  0
  2  3  1  0  0  0  0
  2 27  1  0  0  0  0
  2 28  1  0  0  0  0
  3  4  1  0  0  0  0
  3 29  1  0  0  0  0
  3 30  1  0  0  0  0
  4  5  1  0  0  0  0
  5  6  1  0  0  0  0
  5 31  1  0  0  0  0
  5 32  1  0  0  0  0
  6  7  2  0  0  0  0
  6 19  1  0  0  0  0
  7  8  1  0  0  0  0
  8  9  2  0  0  0  0
  8 13  1  0  0  0  0
  9 10  1  0  0  0  0
  9 15  1  0  0  0  0
 10 11  2  0  0  0  0
 10 33  1  0  0  0  0
 11 12  1  0  0  0  0
 11 14  1  0  0  0  0
 12 13  2  0  0  0  0
 12 34  1  0  0  0  0
 13 35  1  0  0  0  0
 15 16  1  0  0  0  0
 15 17  1  0  0  0  0
 15 18  1  0  0  0  0
 19 20  1  0  0  0  0
 19 23  1  0  0  0  0
 20 21  2  0  0  0  0
 20 36  1  0  0  0  0
 21 22  1  0  0  0  0
 21 37  1  0  0  0  0
 22 23  2  0  0  0  0
 23 38  1  0  0  0  0
M  END
$$$$

 OpenBabel05152416213D

 53 54  0  0  1  0  0  0  0  0999 V2000
    1.8182    1.7012   -1.1517 B   0  0  0  0  0  0  0  0  0  0  0  0
    2.1408    2.7477    0.0188 C   0  0  2  0  0  0  0  0  0  0  0  0
    2.8638    4.0825   -0.3850 C   0  0  0  0  0  0  0  0  0  0  0  0
    2.1919    5.2858    0.3184 C   0  0  0  0  0  0  0  0  0  0  0  0
    2.6229    5.3376    1.8004 C   0  0  0  0  0  0  0  0  0  0  0  0
    2.4815    6.6649   -0.2204 C   0  0  0  0  0  0  0  0  0  0  0  0
    2.6208    2.1459    1.2622 N   0  0  0  0  0  0  0  0  0  0  0  0
    1.9700    2.0786    2.4827 C   0  0  0  0  0  0  0  0  0  0  0  0
    2.5801    1.5323    3.3991 O   0  0  0  0  0  0  0  0  0  0  0  0
    0.5941    2.7065    2.8876 C   0  0  2  0  0  0  0  0  0  0  0  0
   -0.6205    1.7380    2.7460 C   0  0  0  0  0  0  0  0  0  0  0  0
   -1.5602    1.9083    1.5193 C   0  0  0  0  0  0  0  0  0  0  0  0
   -2.0196    3.1552    0.9818 C   0  0  0  0  0  0  0  0  0  0  0  0
   -2.7153    3.2595   -0.1935 C   0  0  0  0  0  0  0  0  0  0  0  0
   -3.1670    2.1168   -0.8010 C   0  0  0  0  0  0  0  0  0  0  0  0
   -2.8977    0.8701   -0.2203 C   0  0  0  0  0  0  0  0  0  0  0  0
   -2.0667    0.7636    0.9079 C   0  0  0  0  0  0  0  0  0  0  0  0
    0.2559    3.9509    2.2000 N   0  0  0  0  0  0  0  0  0  0  0  0
   -0.1006    5.1753    2.6183 C   0  0  0  0  0  0  0  0  0  0  0  0
   -0.5242    5.9946    1.7840 O   0  0  0  0  0  0  0  0  0  0  0  0
   -0.0085    5.5892    3.9456 C   0  0  0  0  0  0  0  0  0  0  0  0
    1.0007    5.0954    4.7066 N   0  0  0  0  0  0  0  0  0  0  0  0
    1.1218    5.4530    5.9876 C   0  0  0  0  0  0  0  0  0  0  0  0
    0.1758    6.3159    6.5426 C   0  0  0  0  0  0  0  0  0  0  0  0
   -0.8186    6.8325    5.7623 N   0  0  0  0  0  0  0  0  0  0  0  0
   -0.9094    6.4985    4.4606 C   0  0  0  0  0  0  0  0  0  0  0  0
    0.4119    1.4924   -1.5997 O   0  0  0  0  0  0  0  0  0  0  0  0
    2.8879    1.1214   -1.9415 O   0  0  0  0  0  0  0  0  0  0  0  0
    1.1523    2.9473    0.0645 H   0  0  0  0  0  0  0  0  0  0  0  0
    3.9530    4.0724   -0.1726 H   0  0  0  0  0  0  0  0  0  0  0  0
    2.7136    4.2392   -1.4749 H   0  0  0  0  0  0  0  0  0  0  0  0
    1.1084    5.1932    0.0737 H   0  0  0  0  0  0  0  0  0  0  0  0
    3.6992    5.4778    1.9324 H   0  0  0  0  0  0  0  0  0  0  0  0
    2.1106    6.1664    2.3266 H   0  0  0  0  0  0  0  0  0  0  0  0
    2.4764    4.4144    2.3346 H   0  0  0  0  0  0  0  0  0  0  0  0
    2.3018    6.7218   -1.3092 H   0  0  0  0  0  0  0  0  0  0  0  0
    1.7660    7.3657    0.2846 H   0  0  0  0  0  0  0  0  0  0  0  0
    3.5152    6.9442    0.0477 H   0  0  0  0  0  0  0  0  0  0  0  0
    3.5677    1.7346    1.2133 H   0  0  0  0  0  0  0  0  0  0  0  0
    0.6789    2.8650    3.9843 H   0  0  0  0  0  0  0  0  0  0  0  0
   -0.2327    0.6929    2.8419 H   0  0  0  0  0  0  0  0  0  0  0  0
   -1.2582    1.8889    3.6377 H   0  0  0  0  0  0  0  0  0  0  0  0
   -1.8468    4.1183    1.3675 H   0  0  0  0  0  0  0  0  0  0  0  0
   -2.9050    4.2479   -0.6078 H   0  0  0  0  0  0  0  0  0  0  0  0
   -3.7504    2.2273   -1.6986 H   0  0  0  0  0  0  0  0  0  0  0  0
   -3.3182   -0.0141   -0.6577 H   0  0  0  0  0  0  0  0  0  0  0  0
   -1.8397   -0.2056    1.3297 H   0  0  0  0  0  0  0  0  0  0  0  0
    0.1369    3.8816    1.2397 H   0  0  0  0  0  0  0  0  0  0  0  0
    1.9414    5.0444    6.5591 H   0  0  0  0  0  0  0  0  0  0  0  0
    0.2284    6.5730    7.5770 H   0  0  0  0  0  0  0  0  0  0  0  0
   -1.7070    6.8918    3.8257 H   0  0  0  0  0  0  0  0  0  0  0  0
   -0.2293    1.9993   -1.0290 H   0  0  0  0  0  0  0  0  0  0  0  0
    3.7155    1.4883   -1.5485 H   0  0  0  0  0  0  0  0  0  0  0  0
  1 27  1  0  0  0  0
  1 28  1  0  0  0  0
  2  7  1  0  0  0  0
  2 29  1  1  0  0  0
  2  3  1  0  0  0  0
  2  1  1  0  0  0  0
  3  4  1  0  0  0  0
  3 30  1  0  0  0  0
  3 31  1  0  0  0  0
  4  5  1  0  0  0  0
  4  6  1  0  0  0  0
  4 32  1  0  0  0  0
  5 33  1  0  0  0  0
  5 34  1  0  0  0  0
  5 35  1  0  0  0  0
  6 36  1  0  0  0  0
  6 37  1  0  0  0  0
  6 38  1  0  0  0  0
  7  8  1  0  0  0  0
  7 39  1  0  0  0  0
  8  9  2  0  0  0  0
 10 18  1  0  0  0  0
 10 40  1  1  0  0  0
 10 11  1  0  0  0  0
 10  8  1  0  0  0  0
 11 12  1  0  0  0  0
 11 41  1  0  0  0  0
 11 42  1  0  0  0  0
 12 13  2  0  0  0  0
 12 17  1  0  0  0  0
 13 14  1  0  0  0  0
 13 43  1  0  0  0  0
 14 15  2  0  0  0  0
 14 44  1  0  0  0  0
 15 16  1  0  0  0  0
 15 45  1  0  0  0  0
 16 17  2  0  0  0  0
 16 46  1  0  0  0  0
 17 47  1  0  0  0  0
 18 19  1  0  0  0  0
 18 48  1  0  0  0  0
 19 20  2  0  0  0  0
 19 21  1  0  0  0  0
 21 22  2  0  0  0  0
 21 26  1  0  0  0  0
 22 23  1  0  0  0  0
 23 24  2  0  0  0  0
 23 49  1  0  0  0  0
 24 25  1  0  0  0  0
 24 50  1  0  0  0  0
 25 26  2  0  0  0  0
 26 51  1  0  0  0  0
 27 52  1  0  0  0  0
 28 53  1  0  0  0  0
M  END
$$$$

 OpenBabel05152416213D

 27 29  0  0  0  0  0  0  0  0999 V2000
   -2.4227   -1.4080   -0.0011 C   0  0  0  0  0  0  0  0  0  0  0  0
   -3.6232   -0.6970    0.0016 C   0  0  0  0  0  0  0  0  0  0  0  0
   -3.6180    0.7060    0.0038 C   0  0  0  0  0  0  0  0  0  0  0  0
   -2.3969    1.3988    0.0012 C   0  0  0  0  0  0  0  0  0  0  0  0
   -1.1891    0.6908   -0.0010 C   0  0  0  0  0  0  0  0  0  0  0  0
   -0.0042    1.3579   -0.0013 N   0  0  0  0  0  0  0  0  0  0  0  0
    1.1867    0.6983   -0.0011 C   0  0  0  0  0  0  0  0  0  0  0  0
    1.2123   -0.7144   -0.0008 C   0  0  0  0  0  0  0  0  0  0  0  0
    2.4381   -1.3907    0.0002 C   0  0  0  0  0  0  0  0  0  0  0  0
    3.6326   -0.6687    0.0004 C   0  0  0  0  0  0  0  0  0  0  0  0
    3.6140    0.7345   -0.0001 C   0  0  0  0  0  0  0  0  0  0  0  0
    2.3867    1.4155   -0.0007 C   0  0  0  0  0  0  0  0  0  0  0  0
    4.8289    1.4600    0.0000 N   0  0  0  0  0  0  0  0  0  0  0  0
    0.0069   -1.4194   -0.0013 C   0  0  0  0  0  0  0  0  0  0  0  0
   -1.2040   -0.7223   -0.0014 C   0  0  0  0  0  0  0  0  0  0  0  0
   -4.8424    1.4164    0.0104 N   0  0  0  0  0  0  0  0  0  0  0  0
   -2.4448   -2.4911   -0.0018 H   0  0  0  0  0  0  0  0  0  0  0  0
   -4.5580   -1.2416    0.0030 H   0  0  0  0  0  0  0  0  0  0  0  0
   -2.3867    2.4827    0.0023 H   0  0  0  0  0  0  0  0  0  0  0  0
    2.4698   -2.4739    0.0007 H   0  0  0  0  0  0  0  0  0  0  0  0
    4.5733   -1.2042    0.0010 H   0  0  0  0  0  0  0  0  0  0  0  0
    2.3668    2.4989   -0.0009 H   0  0  0  0  0  0  0  0  0  0  0  0
    5.7338    0.9671    0.0002 H   0  0  0  0  0  0  0  0  0  0  0  0
    4.8249    2.4902   -0.0002 H   0  0  0  0  0  0  0  0  0  0  0  0
    0.0099   -2.5038   -0.0008 H   0  0  0  0  0  0  0  0  0  0  0  0
   -4.8536    2.4465    0.0154 H   0  0  0  0  0  0  0  0  0  0  0  0
   -5.7401    0.9105    0.0160 H   0  0  0  0  0  0  0  0  0  0  0  0
  1  2  2  0  0  0  0
  1 15  1  0  0  0  0
  1 17  1  0  0  0  0
  2  3  1  0  0  0  0
  2 18  1  0  0  0  0
  3  4  2  0  0  0  0
  3 16  1  0  0  0  0
  4  5  1  0  0  0  0
  4 19  1  0  0  0  0
  5  6  2  0  0  0  0
  5 15  1  0  0  0  0
  6  7  1  0  0  0  0
  7  8  2  0  0  0  0
  7 12  1  0  0  0  0
  8  9  1  0  0  0  0
  8 14  1  0  0  0  0
  9 10  2  0  0  0  0
  9 20  1  0  0  0  0
 10 11  1  0  0  0  0
 10 21  1  0  0  0  0
 11 12  2  0  0  0  0
 11 13  1  0  0  0  0
 12 22  1  0  0  0  0
 13 23  1  0  0  0  0
 13 24  1  0  0  0  0
 14 15  2  0  0  0  0
 14 25  1  0  0  0  0
 16 26  1  0  0  0  0
 16 27  1  0  0  0  0
M  END
$$$$

 OpenBabel05152416213D

 51 49  0  0  0  0  0  0  0  0999 V2000
    0.9314   -0.1488   -0.2630 C   0  0  0  0  0  0  0  0  0  0  0  0
    0.5663   -1.4780   -0.8784 C   0  0  0  0  0  0  0  0  0  0  0  0
    1.1318   -2.6098   -0.0034 C   0  0  0  0  0  0  0  0  0  0  0  0
    0.5767   -2.5454    1.4426 C   0  0  0  0  0  0  0  0  0  0  0  0
   -0.9686   -2.5520    1.4244 C   0  0  0  0  0  0  0  0  0  0  0  0
   -1.4583   -3.8094    0.6830 C   0  0  0  0  0  0  0  0  0  0  0  0
   -0.8865   -5.0593    1.3943 C   0  0  0  0  0  0  0  0  0  0  0  0
   -1.4064   -5.0987    2.8495 C   0  0  0  0  0  0  0  0  0  0  0  0
   -2.9348   -5.1096    2.8251 C   0  0  0  0  0  0  0  0  0  0  0  0
   -3.3931   -6.3533    2.0181 C   0  0  0  0  0  0  0  0  0  0  0  0
   -3.0513   -7.6336    2.7873 C   0  0  0  0  0  0  0  0  0  0  0  0
   -3.6272   -7.6488    4.2268 C   0  0  0  0  0  0  0  0  0  0  0  0
   -5.1378   -7.6304    4.3120 N   0  3  0  0  0  0  0  0  0  0  0  0
   -5.6509   -8.8257    3.6186 C   0  0  0  0  0  0  0  0  0  0  0  0
   -5.4948   -7.6891    5.7463 C   0  0  0  0  0  0  0  0  0  0  0  0
   -5.8065   -6.4172    3.7837 C   0  0  0  0  0  0  0  0  0  0  0  0
    1.9296    2.3121    1.3382 Cl  0  5  0  0  0  0  0  0  0  0  0  0
    0.4634   -0.0335    0.7371 H   0  0  0  0  0  0  0  0  0  0  0  0
    0.5581    0.6789   -0.8877 H   0  0  0  0  0  0  0  0  0  0  0  0
    2.0371   -0.1140   -0.1645 H   0  0  0  0  0  0  0  0  0  0  0  0
   -0.5392   -1.5347   -0.9926 H   0  0  0  0  0  0  0  0  0  0  0  0
    0.9849   -1.5425   -1.8998 H   0  0  0  0  0  0  0  0  0  0  0  0
    0.8988   -3.5803   -0.4917 H   0  0  0  0  0  0  0  0  0  0  0  0
    2.2362   -2.5642    0.0292 H   0  0  0  0  0  0  0  0  0  0  0  0
    1.0009   -3.3764    2.0395 H   0  0  0  0  0  0  0  0  0  0  0  0
    0.9392   -1.6667    2.0011 H   0  0  0  0  0  0  0  0  0  0  0  0
   -1.3659   -2.4790    2.4555 H   0  0  0  0  0  0  0  0  0  0  0  0
   -1.3887   -1.6460    0.9524 H   0  0  0  0  0  0  0  0  0  0  0  0
   -2.5619   -3.8000    0.5968 H   0  0  0  0  0  0  0  0  0  0  0  0
   -1.1734   -3.8158   -0.3816 H   0  0  0  0  0  0  0  0  0  0  0  0
   -1.0974   -5.9598    0.8015 H   0  0  0  0  0  0  0  0  0  0  0  0
    0.2083   -5.1259    1.3856 H   0  0  0  0  0  0  0  0  0  0  0  0
   -0.9941   -5.9656    3.3911 H   0  0  0  0  0  0  0  0  0  0  0  0
   -1.0498   -4.2492    3.4610 H   0  0  0  0  0  0  0  0  0  0  0  0
   -3.2968   -5.0372    3.8623 H   0  0  0  0  0  0  0  0  0  0  0  0
   -3.3783   -4.1877    2.4056 H   0  0  0  0  0  0  0  0  0  0  0  0
   -4.4028   -6.2573    1.6448 H   0  0  0  0  0  0  0  0  0  0  0  0
   -2.9850   -6.4337    1.0102 H   0  0  0  0  0  0  0  0  0  0  0  0
   -3.3377   -8.5203    2.1977 H   0  0  0  0  0  0  0  0  0  0  0  0
   -1.9485   -7.7394    2.8609 H   0  0  0  0  0  0  0  0  0  0  0  0
   -3.2328   -8.5692    4.7107 H   0  0  0  0  0  0  0  0  0  0  0  0
   -3.1837   -6.8428    4.8468 H   0  0  0  0  0  0  0  0  0  0  0  0
   -5.2098   -9.7549    4.0411 H   0  0  0  0  0  0  0  0  0  0  0  0
   -6.7561   -8.8715    3.6747 H   0  0  0  0  0  0  0  0  0  0  0  0
   -5.4105   -8.7993    2.5326 H   0  0  0  0  0  0  0  0  0  0  0  0
   -5.1205   -6.7829    6.2789 H   0  0  0  0  0  0  0  0  0  0  0  0
   -6.6033   -7.7071    5.8617 H   0  0  0  0  0  0  0  0  0  0  0  0
   -5.0843   -8.5907    6.2386 H   0  0  0  0  0  0  0  0  0  0  0  0
   -5.3422   -5.4727    4.1311 H   0  0  0  0  0  0  0  0  0  0  0  0
   -5.9882   -6.4455    2.7026 H   0  0  0  0  0  0  0  0  0  0  0  0
   -6.8643   -6.3588    4.1042 H   0  0  0  0  0  0  0  0  0  0  0  0
  1  2  1  0  0  0  0
  1 18  1  0  0  0  0
  1 19  1  0  0  0  0
  1 20  1  0  0  0  0
  2  3  1  0  0  0  0
  2 21  1  0  0  0  0
  2 22  1  0  0  0  0
  3  4  1  0  0  0  0
  3 23  1  0  0  0  0
  3 24  1  0  0  0  0
  4  5  1  0  0  0  0
  4 25  1  0  0  0  0
  4 26  1  0  0  0  0
  5  6  1  0  0  0  0
  5 27  1  0  0  0  0
  5 28  1  0  0  0  0
  6  7  1  0  0  0  0
  6 29  1  0  0  0  0
  6 30  1  0  0  0  0
  7  8  1  0  0  0  0
  7 31  1  0  0  0  0
  7 32  1  0  0  0  0
  8  9  1  0  0  0  0
  8 33  1  0  0  0  0
  8 34  1  0  0  0  0
  9 10  1  0  0  0  0
  9 35  1  0  0  0  0
  9 36  1  0  0  0  0
 10 11  1  0  0  0  0
 10 37  1  0  0  0  0
 10 38  1  0  0  0  0
 11 12  1  0  0  0  0
 11 39  1  0  0  0  0
 11 40  1  0  0  0  0
 12 13  1  0  0  0  0
 12 41  1  0  0  0  0
 12 42  1  0  0  0  0
 13 14  1  0  0  0  0
 13 15  1  0  0  0  0
 13 16  1  0  0  0  0
 14 43  1  0  0  0  0
 14 44  1  0  0  0  0
 14 45  1  0  0  0  0
 15 46  1  0  0  0  0
 15 47  1  0  0  0  0
 15 48  1  0  0  0  0
 16 49  1  0  0  0  0
 16 50  1  0  0  0  0
 16 51  1  0  0  0  0
M  CHG  2  13   1  17  -1
M  END
$$$$

 OpenBabel05152416213D

 38 40  0  0  0  0  0  0  0  0999 V2000
    0.9884    0.0368   -0.0501 C   0  0  0  0  0  0  0  0  0  0  0  0
    0.5089   -0.7318    1.0743 N   0  0  0  0  0  0  0  0  0  0  0  0
   -0.3922   -0.1458    2.0626 C   0  0  0  0  0  0  0  0  0  0  0  0
    0.8807   -2.0975    1.1805 C   0  0  0  0  0  0  0  0  0  0  0  0
   -0.0878   -3.0043    1.5448 C   0  0  0  0  0  0  0  0  0  0  0  0
    0.2174   -4.3249    1.6422 C   0  0  0  0  0  0  0  0  0  0  0  0
    1.5091   -4.8384    1.4090 C   0  0  0  0  0  0  0  0  0  0  0  0
    2.5060   -3.9273    1.0429 C   0  0  0  0  0  0  0  0  0  0  0  0
    2.1911   -2.5614    0.9128 C   0  0  0  0  0  0  0  0  0  0  0  0
    1.7996   -6.1766    1.5250 N   0  0  0  0  0  0  0  0  0  0  0  0
    0.9043   -7.1558    1.8600 C   0  0  0  0  0  0  0  0  0  0  0  0
    1.2789   -8.4929    1.9620 C   0  0  0  0  0  0  0  0  0  0  0  0
    0.3192   -9.4631    2.3052 C   0  0  0  0  0  0  0  0  0  0  0  0
   -1.0613   -9.1335    2.5599 C   0  0  0  0  0  0  0  0  0  0  0  0
   -1.9535  -10.0354    2.8781 N   0  3  0  0  0  0  0  0  0  0  0  0
   -3.3765   -9.7496    3.1482 C   0  0  0  0  0  0  0  0  0  0  0  0
   -1.5734  -11.4330    2.9882 C   0  0  0  0  0  0  0  0  0  0  0  0
   -1.4154   -7.7883    2.4530 C   0  0  0  0  0  0  0  0  0  0  0  0
   -0.5030   -6.8485    2.1278 C   0  0  0  0  0  0  0  0  0  0  0  0
   -1.0215   -5.3058    2.0449 S   0  0  0  0  0  0  0  0  0  0  0  0
    0.5975    1.0712   -0.0270 H   0  0  0  0  0  0  0  0  0  0  0  0
    0.6242   -0.4493   -0.9845 H   0  0  0  0  0  0  0  0  0  0  0  0
    2.0925    0.0642   -0.0588 H   0  0  0  0  0  0  0  0  0  0  0  0
   -1.3792   -0.6507    2.0869 H   0  0  0  0  0  0  0  0  0  0  0  0
    0.0712   -0.2384    3.0698 H   0  0  0  0  0  0  0  0  0  0  0  0
   -0.5852    0.9239    1.8623 H   0  0  0  0  0  0  0  0  0  0  0  0
   -1.1110   -2.7058    1.7256 H   0  0  0  0  0  0  0  0  0  0  0  0
    3.5171   -4.2691    0.8575 H   0  0  0  0  0  0  0  0  0  0  0  0
    2.9747   -1.8755    0.6359 H   0  0  0  0  0  0  0  0  0  0  0  0
    2.3056   -8.7908    1.7787 H   0  0  0  0  0  0  0  0  0  0  0  0
    0.6828  -10.4776    2.3662 H   0  0  0  0  0  0  0  0  0  0  0  0
   -4.0069  -10.2961    2.4205 H   0  0  0  0  0  0  0  0  0  0  0  0
   -3.6237  -10.0531    4.1837 H   0  0  0  0  0  0  0  0  0  0  0  0
   -3.7303   -8.7131    3.0820 H   0  0  0  0  0  0  0  0  0  0  0  0
   -1.1831  -11.7864    2.0097 H   0  0  0  0  0  0  0  0  0  0  0  0
   -0.7991  -11.5428    3.7778 H   0  0  0  0  0  0  0  0  0  0  0  0
   -2.4384  -12.0677    3.2637 H   0  0  0  0  0  0  0  0  0  0  0  0
   -2.3942   -7.3899    2.6127 H   0  0  0  0  0  0  0  0  0  0  0  0
  1  2  1  0  0  0  0
  1 21  1  0  0  0  0
  1 22  1  0  0  0  0
  1 23  1  0  0  0  0
  2  3  1  0  0  0  0
  2  4  1  0  0  0  0
  3 24  1  0  0  0  0
  3 25  1  0  0  0  0
  3 26  1  0  0  0  0
  4  5  2  0  0  0  0
  4  9  1  0  0  0  0
  5  6  1  0  0  0  0
  5 27  1  0  0  0  0
  6  7  2  0  0  0  0
  6 20  1  0  0  0  0
  7  8  1  0  0  0  0
  7 10  1  0  0  0  0
  8  9  2  0  0  0  0
  8 28  1  0  0  0  0
  9 29  1  0  0  0  0
 10 11  2  0  0  0  0
 11 12  1  0  0  0  0
 11 19  1  0  0  0  0
 12 13  2  0  0  0  0
 12 30  1  0  0  0  0
 13 14  1  0  0  0  0
 13 31  1  0  0  0  0
 14 15  2  0  0  0  0
 14 18  1  0  0  0  0
 15 16  1  0  0  0  0
 15 17  1  0  0  0  0
 16 32  1  0  0  0  0
 16 33  1  0  0  0  0
 16 34  1  0  0  0  0
 17 35  1  0  0  0  0
 17 36  1  0  0  0  0
 17 37  1  0  0  0  0
 18 19  2  0  0  0  0
 18 38  1  0  0  0  0
 19 20  1  0  0  0  0
M  CHG  1  15   1
M  END
$$$$

 OpenBabel05152416213D

 66 67  0  0  0  0  0  0  0  0999 V2000
    1.0071   -0.0224    0.0822 C   0  0  0  0  0  0  0  0  0  0  0  0
    0.5834    0.5354   -1.2921 C   0  0  0  0  0  0  0  0  0  0  0  0
    1.0743   -0.2343   -2.3445 O   0  0  0  0  0  0  0  0  0  0  0  0
    2.4042   -0.4652   -2.5167 C   0  0  0  0  0  0  0  0  0  0  0  0
    3.2055    0.1055   -1.7899 O   0  0  0  0  0  0  0  0  0  0  0  0
    2.9544   -1.3096   -3.6313 C   0  0  0  0  0  0  0  0  0  0  0  0
    3.8843   -2.2455   -3.3072 C   0  0  0  0  0  0  0  0  0  0  0  0
    4.3741   -3.1313   -4.2832 N   0  0  0  0  0  0  0  0  0  0  0  0
    4.2867   -2.8994   -5.6698 C   0  0  0  0  0  0  0  0  0  0  0  0
    3.4956   -1.8791   -6.1364 C   0  0  0  0  0  0  0  0  0  0  0  0
    2.5082   -1.1489   -5.1190 C   0  0  0  0  0  0  0  0  0  0  0  0
    2.1980    0.3207   -5.5167 C   0  0  0  0  0  0  0  0  0  0  0  0
    2.6982    1.3806   -4.7152 C   0  0  0  0  0  0  0  0  0  0  0  0
    2.4809    2.7061   -5.0111 C   0  0  0  0  0  0  0  0  0  0  0  0
    1.8355    3.0440   -6.1782 C   0  0  0  0  0  0  0  0  0  0  0  0
    1.3505    2.0512   -7.0280 C   0  0  0  0  0  0  0  0  0  0  0  0
    1.4579    0.6711   -6.7071 C   0  0  0  0  0  0  0  0  0  0  0  0
    0.9183   -0.3932   -7.6589 C   0  0  0  0  0  0  0  0  0  0  0  0
    0.5434   -0.1372   -8.9380 C   0  0  0  0  0  0  0  0  0  0  0  0
    0.2185   -1.1739   -9.9802 C   0  0  0  0  0  0  0  0  0  0  0  0
   -0.0520   -0.7562  -11.0979 O   0  0  0  0  0  0  0  0  0  0  0  0
    0.4829   -2.5183   -9.7939 O   0  0  0  0  0  0  0  0  0  0  0  0
    0.3467   -3.5765  -10.7269 C   0  0  0  0  0  0  0  0  0  0  0  0
   -1.1151   -3.6253  -11.1150 C   0  0  0  0  0  0  0  0  0  0  0  0
    1.1825   -3.4594  -12.0571 C   0  0  0  0  0  0  0  0  0  0  0  0
    0.7690   -4.9132  -10.0571 C   0  0  0  0  0  0  0  0  0  0  0  0
    3.7663   -1.4074   -7.5549 C   0  0  0  0  0  0  0  0  0  0  0  0
    3.5743   -0.2309   -7.8450 O   0  0  0  0  0  0  0  0  0  0  0  0
    4.3767   -2.1649   -8.4905 O   0  0  0  0  0  0  0  0  0  0  0  0
    4.4436   -1.8743   -9.8401 C   0  0  0  0  0  0  0  0  0  0  0  0
    3.0918   -1.9942  -10.3544 C   0  0  0  0  0  0  0  0  0  0  0  0
    5.2599   -3.7627   -6.4541 C   0  0  0  0  0  0  0  0  0  0  0  0
    4.4571   -2.4573   -1.9203 C   0  0  0  0  0  0  0  0  0  0  0  0
    0.6508   -1.0654    0.1996 H   0  0  0  0  0  0  0  0  0  0  0  0
    0.5974    0.6093    0.8960 H   0  0  0  0  0  0  0  0  0  0  0  0
    2.1061   -0.0210    0.2256 H   0  0  0  0  0  0  0  0  0  0  0  0
   -0.5258    0.5494   -1.3370 H   0  0  0  0  0  0  0  0  0  0  0  0
    0.9479    1.5820   -1.3909 H   0  0  0  0  0  0  0  0  0  0  0  0
    5.0135   -3.8782   -3.9641 H   0  0  0  0  0  0  0  0  0  0  0  0
    1.5102   -1.6500   -5.1328 H   0  0  0  0  0  0  0  0  0  0  0  0
    3.2984    1.2406   -3.8466 H   0  0  0  0  0  0  0  0  0  0  0  0
    2.8530    3.4684   -4.3363 H   0  0  0  0  0  0  0  0  0  0  0  0
    1.7253    4.0884   -6.4284 H   0  0  0  0  0  0  0  0  0  0  0  0
    0.8924    2.4012   -7.9331 H   0  0  0  0  0  0  0  0  0  0  0  0
    0.9259   -1.4301   -7.3456 H   0  0  0  0  0  0  0  0  0  0  0  0
    0.5730    0.8754   -9.3140 H   0  0  0  0  0  0  0  0  0  0  0  0
   -1.3948   -2.6699  -11.6008 H   0  0  0  0  0  0  0  0  0  0  0  0
   -1.2908   -4.4469  -11.8349 H   0  0  0  0  0  0  0  0  0  0  0  0
   -1.7202   -3.7573  -10.1968 H   0  0  0  0  0  0  0  0  0  0  0  0
    2.2633   -3.7018  -11.9772 H   0  0  0  0  0  0  0  0  0  0  0  0
    0.8773   -4.2403  -12.7817 H   0  0  0  0  0  0  0  0  0  0  0  0
    1.0671   -2.4740  -12.5492 H   0  0  0  0  0  0  0  0  0  0  0  0
    1.8480   -4.9448   -9.7820 H   0  0  0  0  0  0  0  0  0  0  0  0
    0.1979   -5.1048   -9.1271 H   0  0  0  0  0  0  0  0  0  0  0  0
    0.6171   -5.7598  -10.7606 H   0  0  0  0  0  0  0  0  0  0  0  0
    4.7669   -0.8330  -10.0185 H   0  0  0  0  0  0  0  0  0  0  0  0
    5.0507   -2.6190  -10.3931 H   0  0  0  0  0  0  0  0  0  0  0  0
    2.5272   -1.3066   -9.7597 H   0  0  0  0  0  0  0  0  0  0  0  0
    2.9800   -1.6888  -11.4121 H   0  0  0  0  0  0  0  0  0  0  0  0
    2.8009   -3.0298  -10.1027 H   0  0  0  0  0  0  0  0  0  0  0  0
    6.2809   -3.4860   -6.1278 H   0  0  0  0  0  0  0  0  0  0  0  0
    5.0418   -4.8191   -6.2055 H   0  0  0  0  0  0  0  0  0  0  0  0
    5.2986   -3.8022   -7.5406 H   0  0  0  0  0  0  0  0  0  0  0  0
    4.2827   -3.5020   -1.6083 H   0  0  0  0  0  0  0  0  0  0  0  0
    5.5517   -2.2677   -1.9907 H   0  0  0  0  0  0  0  0  0  0  0  0
    4.0787   -1.8253   -1.1052 H   0  0  0  0  0  0  0  0  0  0  0  0
  1  2  1  0  0  0  0
  1 34  1  0  0  0  0
  1 35  1  0  0  0  0
  1 36  1  0  0  0  0
  2  3  1  0  0  0  0
  2 37  1  0  0  0  0
  2 38  1  0  0  0  0
  3  4  1  0  0  0  0
  4  5  2  0  0  0  0
  4  6  1  0  0  0  0
  6  7  2  0  0  0  0
  6 11  1  0  0  0  0
  7  8  1  0  0  0  0
  7 33  1  0  0  0  0
  8  9  1  0  0  0  0
  8 39  1  0  0  0  0
  9 10  2  0  0  0  0
  9 32  1  0  0  0  0
 10 11  1  0  0  0  0
 10 27  1  0  0  0  0
 11 12  1  0  0  0  0
 11 40  1  0  0  0  0
 12 13  2  0  0  0  0
 12 17  1  0  0  0  0
 13 14  1  0  0  0  0
 13 41  1  0  0  0  0
 14 15  2  0  0  0  0
 14 42  1  0  0  0  0
 15 16  1  0  0  0  0
 15 43  1  0  0  0  0
 16 17  2  0  0  0  0
 16 44  1  0  0  0  0
 17 18  1  0  0  0  0
 18 19  2  0  0  0  0
 18 45  1  0  0  0  0
 19 20  1  0  0  0  0
 19 46  1  0  0  0  0
 20 21  2  0  0  0  0
 20 22  1  0  0  0  0
 22 23  1  0  0  0  0
 23 24  1  0  0  0  0
 23 25  1  0  0  0  0
 23 26  1  0  0  0  0
 24 47  1  0  0  0  0
 24 48  1  0  0  0  0
 24 49  1  0  0  0  0
 25 50  1  0  0  0  0
 25 51  1  0  0  0  0
 25 52  1  0  0  0  0
 26 53  1  0  0  0  0
 26 54  1  0  0  0  0
 26 55  1  0  0  0  0
 27 28  2  0  0  0  0
 27 29  1  0  0  0  0
 29 30  1  0  0  0  0
 30 31  1  0  0  0  0
 30 56  1  0  0  0  0
 30 57  1  0  0  0  0
 31 58  1  0  0  0  0
 31 59  1  0  0  0  0
 31 60  1  0  0  0  0
 32 61  1  0  0  0  0
 32 62  1  0  0  0  0
 32 63  1  0  0  0  0
 33 64  1  0  0  0  0
 33 65  1  0  0  0  0
 33 66  1  0  0  0  0
M  END
$$$$

 OpenBabel05152416213D

 30 30  0  0  0  0  0  0  0  0999 V2000
   -3.7208   -0.6533   -0.0137 C   0  0  0  0  0  0  0  0  0  0  0  0
   -3.7257    0.7649   -0.0031 C   0  0  0  0  0  0  0  0  0  0  0  0
   -2.5385    1.5661   -0.0453 C   0  0  0  0  0  0  0  0  0  0  0  0
   -1.2492    0.9149   -0.2302 C   0  0  0  0  0  0  0  0  0  0  0  0
   -1.2735   -0.7011   -0.2185 C   0  0  0  0  0  0  0  0  0  0  0  0
   -2.5434   -1.3796   -0.0667 C   0  0  0  0  0  0  0  0  0  0  0  0
    0.0924   -1.5572   -0.1852 C   0  0  0  0  0  0  0  0  0  0  0  0
    1.4072   -0.7027   -0.0915 C   0  0  0  0  0  0  0  0  0  0  0  0
    2.7373   -1.4961    0.0471 C   0  0  0  0  0  0  0  0  0  0  0  0
    3.8637   -0.6602    0.1045 C   0  0  0  0  0  0  0  0  0  0  0  0
    3.8555    0.7935    0.0879 C   0  0  0  0  0  0  0  0  0  0  0  0
    2.7169    1.6686    0.0055 C   0  0  0  0  0  0  0  0  0  0  0  0
    1.3836    0.8847   -0.1537 C   0  0  0  0  0  0  0  0  0  0  0  0
    0.1080    1.6377   -0.2208 N   0  0  0  0  0  0  0  0  0  0  0  0
   -0.0211   -3.0563   -0.0352 N   0  0  0  0  0  0  0  0  0  0  0  0
    0.0738    0.1435    2.0264 O   0  0  0  0  0  0  0  0  0  0  0  0
    1.4208   -0.3949   -2.7787 Cl  0  0  0  0  0  0  0  0  0  0  0  0
   -4.6303   -1.2285   -0.0018 H   0  0  0  0  0  0  0  0  0  0  0  0
   -4.6743    1.2468    0.0117 H   0  0  0  0  0  0  0  0  0  0  0  0
   -2.6320    2.6688    0.0269 H   0  0  0  0  0  0  0  0  0  0  0  0
   -2.6329   -2.4852   -0.0178 H   0  0  0  0  0  0  0  0  0  0  0  0
    2.7591   -2.6218    0.0863 H   0  0  0  0  0  0  0  0  0  0  0  0
    4.7948   -1.2067    0.1006 H   0  0  0  0  0  0  0  0  0  0  0  0
    4.7946    1.2978    0.0803 H   0  0  0  0  0  0  0  0  0  0  0  0
    2.7874    2.7925    0.0346 H   0  0  0  0  0  0  0  0  0  0  0  0
   -0.9069   -3.6069   -0.0119 H   0  0  0  0  0  0  0  0  0  0  0  0
    0.8338   -3.6761   -0.0162 H   0  0  0  0  0  0  0  0  0  0  0  0
    0.0794    0.1014    1.1365 H   0  0  0  0  0  0  0  0  0  0  0  0
    1.0379    0.1913    1.9960 H   0  0  0  0  0  0  0  0  0  0  0  0
    2.4668    0.0746   -1.9925 H   0  0  0  0  0  0  0  0  0  0  0  0
  1  2  2  0  0  0  0
  1  6  1  0  0  0  0
  1 18  1  0  0  0  0
  2  3  1  0  0  0  0
  2 19  1  0  0  0  0
  3  4  2  0  0  0  0
  3 20  1  0  0  0  0
  4  5  1  0  0  0  0
  4 14  1  0  0  0  0
  5  6  2  0  0  0  0
  5  7  1  0  0  0  0
  6 21  1  0  0  0  0
  7  8  2  0  0  0  0
  7 15  1  0  0  0  0
  8  9  1  0  0  0  0
  8 13  1  0  0  0  0
  9 10  2  0  0  0  0
  9 22  1  0  0  0  0
 10 11  1  0  0  0  0
 10 23  1  0  0  0  0
 11 12  2  0  0  0  0
 11 24  1  0  0  0  0
 12 13  1  0  0  0  0
 12 25  1  0  0  0  0
 13 14  2  0  0  0  0
 15 26  1  0  0  0  0
 15 27  1  0  0  0  0
 16 28  1  0  0  0  0
 16 29  1  0  0  0  0
 17 30  1  0  0  0  0
M  END
$$$$

 OpenBabel05152416213D

144147  0  0  1  0  0  0  0  0999 V2000
    0.8993    4.0168    5.7318 C   0  0  0  0  0  0  0  0  0  0  0  0
    0.4349    4.3188    4.2140 C   0  0  2  0  0  0  0  0  0  0  0  0
    0.4597    5.7982    4.4507 C   0  0  0  0  0  0  0  0  0  0  0  0
   -0.8571    6.0720    5.2141 C   0  0  0  0  0  0  0  0  0  0  0  0
   -2.0007    5.3378    4.6876 C   0  0  1  0  0  0  0  0  0  0  0  0
   -3.3084    5.6505    5.1574 C   0  0  0  0  0  0  0  0  0  0  0  0
   -3.5884    7.1395    5.3215 C   0  0  1  0  0  0  0  0  0  0  0  0
   -3.5853    7.8435    4.0586 C   0  0  0  0  0  0  0  0  0  0  0  0
   -4.6193    8.5347    3.7703 C   0  0  0  0  0  0  0  0  0  0  0  0
   -4.6058    9.1342    2.8079 C   0  0  0  0  0  0  0  0  0  0  0  0
   -5.1449   10.5553    2.8556 C   0  0  0  0  0  0  0  0  0  0  0  0
   -5.7182   11.2858    0.9437 C   0  0  0  0  0  0  0  0  0  0  0  0
   -6.4499   11.2083   -0.0356 C   0  0  0  0  0  0  0  0  0  0  0  0
   -6.7564   11.6969   -2.0154 C   0  0  2  0  0  0  0  0  0  0  0  0
   -8.1206   11.2273   -2.7177 C   0  0  0  0  0  0  0  0  0  0  0  0
   -9.4545   11.6992   -2.3825 C   0  0  2  0  0  0  0  0  0  0  0  0
   -9.6822   13.6612   -1.9793 C   0  0  0  0  0  0  0  0  0  0  0  0
  -10.9092   13.9556   -1.8166 O   0  0  0  0  0  0  0  0  0  0  0  0
   -8.8284   14.3510   -0.2993 C   0  0  1  0  0  0  0  0  0  0  0  0
   -8.5970   13.8677    1.4344 C   0  0  1  0  0  0  0  0  0  0  0  0
   -7.7952   12.3408    2.0489 C   0  0  0  0  0  0  0  0  0  0  0  0
   -6.9806   11.9467    2.5826 C   0  0  0  0  0  0  0  0  0  0  0  0
   -6.7083    9.4981    1.8607 C   0  0  2  0  0  0  0  0  0  0  0  0
   -4.5262    9.5283    0.4970 C   0  0  0  0  0  0  0  0  0  0  0  0
   -3.5941   10.2423    1.0363 O   0  0  0  0  0  0  0  0  0  0  0  0
   -4.5281   10.1333   -0.7687 C   0  0  0  0  0  0  0  0  0  0  0  0
   -5.7450    9.2562   -1.5627 C   0  0  2  0  0  0  0  0  0  0  0  0
   -6.8316    8.7237   -1.4737 O   0  0  0  0  0  0  0  0  0  0  0  0
   -7.3876    8.2057   -0.3522 C   0  0  0  0  0  0  0  0  0  0  0  0
   -6.2544    8.0955    0.3627 O   0  0  0  0  0  0  0  0  0  0  0  0
   -9.9820    8.6145    0.8689 C   0  0  2  0  0  0  0  0  0  0  0  0
  -10.8471    8.0764   -0.5136 C   0  0  0  0  0  0  0  0  0  0  0  0
  -10.6568    9.3308   -2.0415 C   0  0  0  0  0  0  0  0  0  0  0  0
  -11.5291   11.5550   -1.8392 C   0  0  0  0  0  0  0  0  0  0  0  0
  -10.5345   12.4825   -0.0262 C   0  0  0  0  0  0  0  0  0  0  0  0
  -10.0415   11.1170    1.9385 N   0  0  0  0  0  0  0  0  0  0  0  0
   -8.2501   10.1818    3.1358 C   0  0  0  0  0  0  0  0  0  0  0  0
   -8.8268   10.6401    4.2883 O   0  0  0  0  0  0  0  0  0  0  0  0
   -2.8780    6.1040    2.3798 C   0  0  0  0  0  0  0  0  0  0  0  0
   -1.6024    6.4961    1.3834 O   0  0  0  0  0  0  0  0  0  0  0  0
   -1.3431    3.9992    3.4305 C   0  0  2  0  0  0  0  0  0  0  0  0
   -1.9239    3.9627    4.4628 O   0  0  0  0  0  0  0  0  0  0  0  0
   -0.6462    2.4548    3.2584 O   0  0  0  0  0  0  0  0  0  0  0  0
   -5.1894    8.1868   -1.7740 C   0  0  2  0  0  0  0  0  0  0  0  0
   -4.4776    8.6354   -2.7919 C   0  0  0  0  0  0  0  0  0  0  0  0
   -5.5568    6.9212   -2.0814 C   0  0  0  0  0  0  0  0  0  0  0  0
   -4.2157    6.0932   -1.6701 C   0  0  2  0  0  0  0  0  0  0  0  0
   -4.3841    4.5401   -1.6697 C   0  0  0  0  0  0  0  0  0  0  0  0
   -4.9773    3.8078   -0.3902 C   0  0  0  0  0  0  0  0  0  0  0  0
   -4.3717    4.3989    0.8653 C   0  0  2  0  0  0  0  0  0  0  0  0
   -4.4208    5.9009    0.7964 C   0  0  1  0  0  0  0  0  0  0  0  0
   -3.5637    6.4788   -0.2929 C   0  0  0  0  0  0  0  0  0  0  0  0
   -5.5906    6.3017    1.0129 O   0  0  0  0  0  0  0  0  0  0  0  0
   -6.5815    5.7692    0.2679 C   0  0  0  0  0  0  0  0  0  0  0  0
   -3.0909    3.8958    0.9346 O   0  0  0  0  0  0  0  0  0  0  0  0
   -7.7006    8.5963    1.7083 C   0  0  0  0  0  0  0  0  0  0  0  0
   -8.6293   10.3167    0.7016 C   0  0  0  0  0  0  0  0  0  0  0  0
   -7.6752   14.5210    2.0255 O   0  0  0  0  0  0  0  0  0  0  0  0
   -7.5233   14.6257   -0.5794 O   0  0  0  0  0  0  0  0  0  0  0  0
   -6.9924   13.5323   -0.5657 C   0  0  0  0  0  0  0  0  0  0  0  0
  -10.6686   10.4248   -0.1574 C   0  0  0  0  0  0  0  0  0  0  0  0
   -5.6508   11.9104   -2.6121 C   0  0  0  0  0  0  0  0  0  0  0  0
   -2.3174    8.1137    3.3187 C   0  0  0  0  0  0  0  0  0  0  0  0
   -4.8000    7.3257    6.0104 O   0  0  0  0  0  0  0  0  0  0  0  0
   -5.8829    6.7214    5.3045 C   0  0  0  0  0  0  0  0  0  0  0  0
    0.4441    4.6398    6.4548 H   0  0  0  0  0  0  0  0  0  0  0  0
    1.9382    4.3427    5.9805 H   0  0  0  0  0  0  0  0  0  0  0  0
    0.6662    3.0722    6.0925 H   0  0  0  0  0  0  0  0  0  0  0  0
    1.3532    3.7835    3.6879 H   0  0  0  0  0  0  0  0  0  0  0  0
    1.3020    6.2015    5.0677 H   0  0  0  0  0  0  0  0  0  0  0  0
    0.4853    6.3116    3.5283 H   0  0  0  0  0  0  0  0  0  0  0  0
   -1.0212    5.7240    6.2001 H   0  0  0  0  0  0  0  0  0  0  0  0
   -0.9669    7.1310    5.3151 H   0  0  0  0  0  0  0  0  0  0  0  0
   -2.0145    5.8834    4.0876 H   0  0  0  0  0  0  0  0  0  0  0  0
   -4.0521    5.1963    4.4859 H   0  0  0  0  0  0  0  0  0  0  0  0
   -3.2970    5.1556    6.0978 H   0  0  0  0  0  0  0  0  0  0  0  0
   -2.7900    7.5823    5.9227 H   0  0  0  0  0  0  0  0  0  0  0  0
   -5.4743    8.7656    4.3265 H   0  0  0  0  0  0  0  0  0  0  0  0
   -4.0168    8.4529    2.0417 H   0  0  0  0  0  0  0  0  0  0  0  0
   -6.3622   10.4603    3.7725 H   0  0  0  0  0  0  0  0  0  0  0  0
   -5.2856   11.5070    0.7495 H   0  0  0  0  0  0  0  0  0  0  0  0
   -7.0502   11.2009    0.3055 H   0  0  0  0  0  0  0  0  0  0  0  0
   -6.6431   13.4609   -2.6219 H   0  0  0  0  0  0  0  0  0  0  0  0
   -8.2680   11.9124   -3.2776 H   0  0  0  0  0  0  0  0  0  0  0  0
   -7.9834   10.3323   -2.5927 H   0  0  0  0  0  0  0  0  0  0  0  0
  -10.1042   10.9353   -3.2567 H   0  0  0  0  0  0  0  0  0  0  0  0
   -9.2542   15.0871   -0.2546 H   0  0  0  0  0  0  0  0  0  0  0  0
   -9.6479   13.6551    1.7318 H   0  0  0  0  0  0  0  0  0  0  0  0
   -6.2758   12.5706    2.4227 H   0  0  0  0  0  0  0  0  0  0  0  0
   -6.8176    8.8242    2.9630 H   0  0  0  0  0  0  0  0  0  0  0  0
   -4.4827   11.5960   -0.7567 H   0  0  0  0  0  0  0  0  0  0  0  0
   -3.7455   10.3841   -1.0058 H   0  0  0  0  0  0  0  0  0  0  0  0
   -6.2637    9.6315   -2.4774 H   0  0  0  0  0  0  0  0  0  0  0  0
   -9.8958    8.3498    1.9087 H   0  0  0  0  0  0  0  0  0  0  0  0
   -9.9243    7.4966   -0.3896 H   0  0  0  0  0  0  0  0  0  0  0  0
  -11.5471    8.4142    0.0879 H   0  0  0  0  0  0  0  0  0  0  0  0
   -9.3947    9.1665   -2.3900 H   0  0  0  0  0  0  0  0  0  0  0  0
  -10.8575    8.9484   -2.6370 H   0  0  0  0  0  0  0  0  0  0  0  0
  -11.2570   12.3347   -3.1316 H   0  0  0  0  0  0  0  0  0  0  0  0
  -12.1072   11.4091   -1.4229 H   0  0  0  0  0  0  0  0  0  0  0  0
   -8.6414   12.1337   -0.7075 H   0  0  0  0  0  0  0  0  0  0  0  0
   -9.9494   12.6205   -0.3845 H   0  0  0  0  0  0  0  0  0  0  0  0
    0.3246    2.1762    2.8481 H   0  0  0  0  0  0  0  0  0  0  0  0
   -4.9661    7.9760   -0.9088 H   0  0  0  0  0  0  0  0  0  0  0  0
   -3.6750    8.2543   -2.5908 H   0  0  0  0  0  0  0  0  0  0  0  0
   -5.2409    8.5227   -3.5831 H   0  0  0  0  0  0  0  0  0  0  0  0
   -4.1850    9.7378   -2.8698 H   0  0  0  0  0  0  0  0  0  0  0  0
   -6.5514    6.9049   -1.7292 H   0  0  0  0  0  0  0  0  0  0  0  0
   -6.2083    6.4906   -2.6949 H   0  0  0  0  0  0  0  0  0  0  0  0
   -3.6316    6.3952   -2.4566 H   0  0  0  0  0  0  0  0  0  0  0  0
   -4.9817    4.2838   -2.5273 H   0  0  0  0  0  0  0  0  0  0  0  0
   -3.4087    4.1410   -1.7033 H   0  0  0  0  0  0  0  0  0  0  0  0
   -6.0657    3.6992   -0.2859 H   0  0  0  0  0  0  0  0  0  0  0  0
   -5.1417    2.8392   -0.4022 H   0  0  0  0  0  0  0  0  0  0  0  0
   -4.9571    4.1688    1.7744 H   0  0  0  0  0  0  0  0  0  0  0  0
   -4.4635    6.4742    1.6423 H   0  0  0  0  0  0  0  0  0  0  0  0
   -2.5877    6.0881   -0.2576 H   0  0  0  0  0  0  0  0  0  0  0  0
   -3.4378    7.5349   -0.1112 H   0  0  0  0  0  0  0  0  0  0  0  0
   -5.9584    5.6915   -0.4823 H   0  0  0  0  0  0  0  0  0  0  0  0
   -6.5059    5.4251   -0.6393 H   0  0  0  0  0  0  0  0  0  0  0  0
   -7.4683    6.1961   -0.1683 H   0  0  0  0  0  0  0  0  0  0  0  0
   -2.7541    3.5607    0.0694 H   0  0  0  0  0  0  0  0  0  0  0  0
   -7.6868    9.9720   -0.7137 H   0  0  0  0  0  0  0  0  0  0  0  0
   -7.8737    7.4281    1.4532 H   0  0  0  0  0  0  0  0  0  0  0  0
   -8.2383    8.7160    1.9486 H   0  0  0  0  0  0  0  0  0  0  0  0
  -10.8598    9.6767    2.1221 H   0  0  0  0  0  0  0  0  0  0  0  0
   -9.0652   10.6417   -0.8470 H   0  0  0  0  0  0  0  0  0  0  0  0
   -8.4872   10.0678    0.7294 H   0  0  0  0  0  0  0  0  0  0  0  0
   -6.8532   14.3142    1.4976 H   0  0  0  0  0  0  0  0  0  0  0  0
   -7.1119   13.0346    0.0660 H   0  0  0  0  0  0  0  0  0  0  0  0
   -7.7234   13.2514   -1.4297 H   0  0  0  0  0  0  0  0  0  0  0  0
   -6.1308   13.1910   -0.7708 H   0  0  0  0  0  0  0  0  0  0  0  0
  -11.4751   10.5501    0.3066 H   0  0  0  0  0  0  0  0  0  0  0  0
   -9.2038    9.0868   -0.7287 H   0  0  0  0  0  0  0  0  0  0  0  0
   -9.0094   12.0800    0.7735 H   0  0  0  0  0  0  0  0  0  0  0  0
   -5.3800   11.2444   -2.2920 H   0  0  0  0  0  0  0  0  0  0  0  0
   -6.0339   11.6591   -3.3450 H   0  0  0  0  0  0  0  0  0  0  0  0
   -4.9795   12.6839   -2.2375 H   0  0  0  0  0  0  0  0  0  0  0  0
   -1.4834    8.2572    3.5853 H   0  0  0  0  0  0  0  0  0  0  0  0
   -2.1858    7.7532    2.7568 H   0  0  0  0  0  0  0  0  0  0  0  0
   -2.1901    8.2894    2.2304 H   0  0  0  0  0  0  0  0  0  0  0  0
   -6.0454    6.9693    4.2750 H   0  0  0  0  0  0  0  0  0  0  0  0
   -5.7659    5.7022    5.1302 H   0  0  0  0  0  0  0  0  0  0  0  0
   -6.8086    6.9384    5.7670 H   0  0  0  0  0  0  0  0  0  0  0  0
  1  2  1  0  0  0  0
  1 66  1  0  0  0  0
  1 67  1  0  0  0  0
  1 68  1  0  0  0  0
  2  3  1  0  0  0  0
  2 41  1  0  0  0  0
  2 69  1  6  0  0  0
  3  4  1  0  0  0  0
  3 70  1  0  0  0  0
  3 71  1  0  0  0  0
  4  5  1  0  0  0  0
  4 72  1  0  0  0  0
  4 73  1  0  0  0  0
  5  6  1  0  0  0  0
  5 42  1  0  0  0  0
  5 74  1  1  0  0  0
  6  7  1  0  0  0  0
  6 75  1  0  0  0  0
  6 76  1  0  0  0  0
  7  8  1  0  0  0  0
  7 64  1  0  0  0  0
  7 77  1  1  0  0  0
  8  9  2  0  0  0  0
  8 63  1  0  0  0  0
  9 10  1  0  0  0  0
  9 78  1  0  0  0  0
 10 11  2  0  0  0  0
 10 79  1  0  0  0  0
 11 12  1  0  0  0  0
 11 80  1  0  0  0  0
 12 13  2  0  0  0  0
 12 81  1  0  0  0  0
 13 14  1  0  0  0  0
 13 82  1  0  0  0  0
 14 15  1  0  0  0  0
 14 83  1  1  0  0  0
 14 62  1  0  0  0  0
 15 16  1  0  0  0  0
 15 84  1  0  0  0  0
 15 85  1  0  0  0  0
 16 17  1  0  0  0  0
 16 86  1  6  0  0  0
 16 61  1  0  0  0  0
 17 18  2  0  0  0  0
 17 19  1  0  0  0  0
 19 20  1  0  0  0  0
 19 59  1  0  0  0  0
 19 87  1  1  0  0  0
 20 21  1  0  0  0  0
 20 58  1  0  0  0  0
 20 88  1  1  0  0  0
 21 22  2  0  0  0  0
 21 57  1  0  0  0  0
 22 23  1  0  0  0  0
 22 89  1  0  0  0  0
 23 24  1  0  0  0  0
 23 90  1  1  0  0  0
 23 56  1  0  0  0  0
 24 25  2  0  0  0  0
 24 26  1  0  0  0  0
 26 27  1  0  0  0  0
 26 91  1  0  0  0  0
 26 92  1  0  0  0  0
 27 28  1  0  0  0  0
 27 44  1  0  0  0  0
 27 93  1  6  0  0  0
 28 29  1  0  0  0  0
 29 30  2  0  0  0  0
 29 31  1  0  0  0  0
 31 32  1  0  0  0  0
 31 36  1  0  0  0  0
 31 94  1  1  0  0  0
 32 33  1  0  0  0  0
 32 95  1  0  0  0  0
 32 96  1  0  0  0  0
 33 34  1  0  0  0  0
 33 97  1  0  0  0  0
 33 98  1  0  0  0  0
 34 35  1  0  0  0  0
 34 99  1  0  0  0  0
 34100  1  0  0  0  0
 35 36  1  0  0  0  0
 35101  1  0  0  0  0
 35102  1  0  0  0  0
 36 37  1  0  0  0  0
 37 38  2  0  0  0  0
 37 39  1  0  0  0  0
 39 40  2  0  0  0  0
 39 41  1  0  0  0  0
 41 42  1  0  0  0  0
 41 43  1  6  0  0  0
 43103  1  0  0  0  0
 44 46  1  0  0  0  0
 44104  1  1  0  0  0
 44 45  1  0  0  0  0
 45105  1  0  0  0  0
 45106  1  0  0  0  0
 45107  1  0  0  0  0
 46 47  1  0  0  0  0
 46108  1  0  0  0  0
 46109  1  0  0  0  0
 47 48  1  0  0  0  0
 47 52  1  0  0  0  0
 47110  1  6  0  0  0
 48 49  1  0  0  0  0
 48111  1  0  0  0  0
 48112  1  0  0  0  0
 49 50  1  0  0  0  0
 49113  1  0  0  0  0
 49114  1  0  0  0  0
 50 51  1  0  0  0  0
 50115  1  1  0  0  0
 50 55  1  0  0  0  0
 51 52  1  0  0  0  0
 51 53  1  0  0  0  0
 51116  1  1  0  0  0
 52117  1  0  0  0  0
 52118  1  0  0  0  0
 53 54  1  0  0  0  0
 54119  1  0  0  0  0
 54120  1  0  0  0  0
 54121  1  0  0  0  0
 55122  1  0  0  0  0
 56123  1  0  0  0  0
 56124  1  0  0  0  0
 56125  1  0  0  0  0
 57126  1  0  0  0  0
 57127  1  0  0  0  0
 57128  1  0  0  0  0
 58129  1  0  0  0  0
 59 60  1  0  0  0  0
 60130  1  0  0  0  0
 60131  1  0  0  0  0
 60132  1  0  0  0  0
 61133  1  0  0  0  0
 61134  1  0  0  0  0
 61135  1  0  0  0  0
 62136  1  0  0  0  0
 62137  1  0  0  0  0
 62138  1  0  0  0  0
 63139  1  0  0  0  0
 63140  1  0  0  0  0
 63141  1  0  0  0  0
 64 65  1  0  0  0  0
 65142  1  0  0  0  0
 65143  1  0  0  0  0
 65144  1  0  0  0  0
M  END
$$$$

 OpenBabel05152416213D

 66 67  0  0  1  0  0  0  0  0999 V2000
    3.0638    3.1138    2.5817 C   0  0  0  0  0  0  0  0  0  0  0  0
    2.9601    1.6088    2.3914 C   0  0  0  0  0  0  0  0  0  0  0  0
    1.6071    1.4907    1.6411 C   0  0  0  0  0  0  0  0  0  0  0  0
    4.1541    0.9904    1.6350 C   0  0  0  0  0  0  0  0  0  0  0  0
    4.1171   -0.3061    1.0229 C   0  0  0  0  0  0  0  0  0  0  0  0
    5.2123   -0.6848    0.1855 C   0  0  0  0  0  0  0  0  0  0  0  0
    6.3523    0.1483    0.1044 C   0  0  0  0  0  0  0  0  0  0  0  0
    6.3696    1.3678    0.8099 C   0  0  0  0  0  0  0  0  0  0  0  0
    5.2607    1.7412    1.5138 N   0  0  0  0  0  0  0  0  0  0  0  0
    7.5413    2.3234    0.7894 C   0  0  0  0  0  0  0  0  0  0  0  0
    7.1158    3.6706    0.2070 C   0  0  0  0  0  0  0  0  0  0  0  0
    8.1189    2.4748    2.1905 C   0  0  0  0  0  0  0  0  0  0  0  0
    7.5405   -0.2032   -0.7942 C   0  0  0  0  0  0  0  0  0  0  0  0
    7.7752    0.7998   -1.7645 O   0  0  0  0  0  0  0  0  0  0  0  0
    6.6590    0.9276   -2.6193 C   0  0  0  0  0  0  0  0  0  0  0  0
    5.1513   -1.9435   -0.6140 C   0  0  0  0  0  0  0  0  0  0  0  0
    4.1816   -2.1226   -1.6235 C   0  0  0  0  0  0  0  0  0  0  0  0
    4.1407   -3.3080   -2.3627 C   0  0  0  0  0  0  0  0  0  0  0  0
    5.0757   -4.3160   -2.1137 C   0  0  0  0  0  0  0  0  0  0  0  0
    6.0519   -4.1370   -1.1303 C   0  0  0  0  0  0  0  0  0  0  0  0
    6.0887   -2.9600   -0.3836 C   0  0  0  0  0  0  0  0  0  0  0  0
    5.0388   -5.4668   -2.8278 F   0  0  0  0  0  0  0  0  0  0  0  0
    2.9298   -1.1945    1.1274 C   0  0  0  0  0  0  0  0  0  0  0  0
    2.0484   -1.2184    2.1558 C   0  0  0  0  0  0  0  0  0  0  0  0
    0.6725   -1.7446    1.9052 C   0  0  2  0  0  0  0  0  0  0  0  0
    0.7714   -3.2224    1.6161 C   0  0  0  0  0  0  0  0  0  0  0  0
   -0.2134   -3.7654    0.5776 C   0  0  2  0  0  0  0  0  0  0  0  0
    0.3601   -3.6903   -0.8853 C   0  0  0  0  0  0  0  0  0  0  0  0
   -0.2874   -2.7128   -1.8260 C   0  0  0  0  0  0  0  0  0  0  0  0
    0.3706   -1.8281   -2.3517 O   0  0  0  0  0  0  0  0  0  0  0  0
   -1.5888   -2.8493   -2.1407 O   0  5  0  0  0  0  0  0  0  0  0  0
   -1.5380   -3.3028    0.7446 O   0  0  0  0  0  0  0  0  0  0  0  0
   -0.0072   -0.9868    0.9208 O   0  0  0  0  0  0  0  0  0  0  0  0
    2.9802    3.5968    1.5782 H   0  0  0  0  0  0  0  0  0  0  0  0
    4.0053    3.4224    3.0592 H   0  0  0  0  0  0  0  0  0  0  0  0
    2.1982    3.4414    3.2028 H   0  0  0  0  0  0  0  0  0  0  0  0
    2.9766    1.1476    3.4048 H   0  0  0  0  0  0  0  0  0  0  0  0
    1.5354    2.1048    0.7361 H   0  0  0  0  0  0  0  0  0  0  0  0
    1.4755    0.6520    1.0248 H   0  0  0  0  0  0  0  0  0  0  0  0
    0.7541    1.5141    2.3649 H   0  0  0  0  0  0  0  0  0  0  0  0
    8.3765    1.9533    0.1706 H   0  0  0  0  0  0  0  0  0  0  0  0
    6.3362    4.1425    0.8426 H   0  0  0  0  0  0  0  0  0  0  0  0
    7.9938    4.3458    0.1452 H   0  0  0  0  0  0  0  0  0  0  0  0
    6.7075    3.5278   -0.8173 H   0  0  0  0  0  0  0  0  0  0  0  0
    8.4312    1.4762    2.5686 H   0  0  0  0  0  0  0  0  0  0  0  0
    9.0135    3.1305    2.1519 H   0  0  0  0  0  0  0  0  0  0  0  0
    7.3672    2.9100    2.8812 H   0  0  0  0  0  0  0  0  0  0  0  0
    8.4335   -0.2945   -0.1396 H   0  0  0  0  0  0  0  0  0  0  0  0
    7.4782   -1.1704   -1.3179 H   0  0  0  0  0  0  0  0  0  0  0  0
    6.4511   -0.0244   -3.1526 H   0  0  0  0  0  0  0  0  0  0  0  0
    5.7588    1.2856   -2.0717 H   0  0  0  0  0  0  0  0  0  0  0  0
    6.8845    1.7106   -3.3681 H   0  0  0  0  0  0  0  0  0  0  0  0
    3.4569   -1.3442   -1.8419 H   0  0  0  0  0  0  0  0  0  0  0  0
    3.3865   -3.4445   -3.1283 H   0  0  0  0  0  0  0  0  0  0  0  0
    6.7832   -4.9097   -0.9402 H   0  0  0  0  0  0  0  0  0  0  0  0
    6.8460   -2.8302    0.3783 H   0  0  0  0  0  0  0  0  0  0  0  0
    2.6718   -1.7678    0.2573 H   0  0  0  0  0  0  0  0  0  0  0  0
    2.1922   -0.7149    3.0908 H   0  0  0  0  0  0  0  0  0  0  0  0
    0.0486   -1.5917    2.8111 H   0  0  0  0  0  0  0  0  0  0  0  0
    1.7813   -3.5283    1.2658 H   0  0  0  0  0  0  0  0  0  0  0  0
    0.7181   -3.6940    2.6159 H   0  0  0  0  0  0  0  0  0  0  0  0
   -0.2108   -4.8405    0.8295 H   0  0  0  0  0  0  0  0  0  0  0  0
    1.4600   -3.5051   -0.8731 H   0  0  0  0  0  0  0  0  0  0  0  0
    0.2534   -4.6941   -1.3395 H   0  0  0  0  0  0  0  0  0  0  0  0
   -1.6445   -2.4272    0.2880 H   0  0  0  0  0  0  0  0  0  0  0  0
    0.4144   -1.0936    0.0352 H   0  0  0  0  0  0  0  0  0  0  0  0
  1  2  1  0  0  0  0
  1 34  1  0  0  0  0
  1 35  1  0  0  0  0
  1 36  1  0  0  0  0
  2  3  1  0  0  0  0
  2  4  1  0  0  0  0
  2 37  1  0  0  0  0
  3 38  1  0  0  0  0
  3 39  1  0  0  0  0
  3 40  1  0  0  0  0
  4  5  2  0  0  0  0
  4  9  1  0  0  0  0
  5  6  1  0  0  0  0
  5 23  1  0  0  0  0
  6  7  2  0  0  0  0
  6 16  1  0  0  0  0
  7  8  1  0  0  0  0
  7 13  1  0  0  0  0
  8  9  2  0  0  0  0
  8 10  1  0  0  0  0
 10 11  1  0  0  0  0
 10 12  1  0  0  0  0
 10 41  1  0  0  0  0
 11 42  1  0  0  0  0
 11 43  1  0  0  0  0
 11 44  1  0  0  0  0
 12 45  1  0  0  0  0
 12 46  1  0  0  0  0
 12 47  1  0  0  0  0
 13 14  1  0  0  0  0
 13 48  1  0  0  0  0
 13 49  1  0  0  0  0
 14 15  1  0  0  0  0
 15 50  1  0  0  0  0
 15 51  1  0  0  0  0
 15 52  1  0  0  0  0
 16 17  2  0  0  0  0
 16 21  1  0  0  0  0
 17 18  1  0  0  0  0
 17 53  1  0  0  0  0
 18 19  2  0  0  0  0
 18 54  1  0  0  0  0
 19 20  1  0  0  0  0
 19 22  1  0  0  0  0
 20 21  2  0  0  0  0
 20 55  1  0  0  0  0
 21 56  1  0  0  0  0
 23 24  2  0  0  0  0
 23 57  1  0  0  0  0
 24 58  1  0  0  0  0
 25 33  1  0  0  0  0
 25 59  1  1  0  0  0
 25 26  1  0  0  0  0
 25 24  1  0  0  0  0
 26 60  1  0  0  0  0
 26 61  1  0  0  0  0
 27 32  1  0  0  0  0
 27 62  1  1  0  0  0
 27 28  1  0  0  0  0
 27 26  1  0  0  0  0
 28 29  1  0  0  0  0
 28 63  1  0  0  0  0
 28 64  1  0  0  0  0
 29 30  2  0  0  0  0
 29 31  1  0  0  0  0
 32 65  1  0  0  0  0
 33 66  1  0  0  0  0
M  CHG  1  31  -1
M  END
$$$$

 OpenBabel05152416213D

 44 45  0  0  0  0  0  0  0  0999 V2000
    1.5333    1.4210    0.3092 C   0  0  0  0  0  0  0  0  0  0  0  0
   -0.2607    1.4562   -0.1228 C   0  0  0  0  0  0  0  0  0  0  0  0
   -1.1881   -0.1525   -0.7125 C   0  0  0  0  0  0  0  0  0  0  0  0
   -0.1707   -1.9378   -0.7836 C   0  0  0  0  0  0  0  0  0  0  0  0
    1.7352   -1.9803   -0.1299 C   0  0  0  0  0  0  0  0  0  0  0  0
    2.6140   -0.2759    0.3518 C   0  0  0  0  0  0  0  0  0  0  0  0
    4.1762   -0.4034    0.4465 C   0  0  0  0  0  0  0  0  0  0  0  0
    4.4440   -0.9296    1.6708 O   0  0  0  0  0  0  0  0  0  0  0  0
    3.9680    0.0403    2.6194 C   0  0  0  0  0  0  0  0  0  0  0  0
    4.5306    1.5195    2.2952 C   0  0  0  0  0  0  0  0  0  0  0  0
    4.2275    2.3338    0.9635 N   0  0  0  0  0  0  0  0  0  0  0  0
    3.9048    2.0786   -0.3749 C   0  0  0  0  0  0  0  0  0  0  0  0
    3.5601    3.1430   -1.0465 C   0  0  0  0  0  0  0  0  0  0  0  0
    3.7752    4.1953   -0.2498 N   0  0  0  0  0  0  0  0  0  0  0  0
    4.2209    3.6760    0.9379 C   0  0  0  0  0  0  0  0  0  0  0  0
    2.4083    0.0333    2.9391 C   0  0  0  0  0  0  0  0  0  0  0  0
    1.5897    1.2402    3.0020 C   0  0  0  0  0  0  0  0  0  0  0  0
    0.2068    1.1626    2.9239 C   0  0  0  0  0  0  0  0  0  0  0  0
   -0.4567   -0.0435    3.0101 C   0  0  0  0  0  0  0  0  0  0  0  0
    0.2945   -1.2567    3.0136 C   0  0  0  0  0  0  0  0  0  0  0  0
    1.7016   -1.2108    2.8940 C   0  0  0  0  0  0  0  0  0  0  0  0
   -2.1912   -0.0209    2.6854 Cl  0  0  0  0  0  0  0  0  0  0  0  0
    2.0350    2.9576    2.8922 Cl  0  0  0  0  0  0  0  0  0  0  0  0
   -2.8741    0.0917   -0.5219 Cl  0  0  0  0  0  0  0  0  0  0  0  0
    1.0443   -0.1170   -1.2458 N   0  3  0  0  0  0  0  0  0  0  0  0
    0.5491    0.5970   -2.0819 O   0  0  0  0  0  0  0  0  0  0  0  0
    0.5441   -0.3936    0.4635 O   0  0  0  0  0  0  0  0  0  0  0  0
    2.1812   -0.5203   -1.8665 O   0  5  0  0  0  0  0  0  0  0  0  0
    1.7807    2.4572    0.4350 H   0  0  0  0  0  0  0  0  0  0  0  0
   -0.6385    2.4633   -0.0044 H   0  0  0  0  0  0  0  0  0  0  0  0
   -0.6442   -2.8704   -0.8925 H   0  0  0  0  0  0  0  0  0  0  0  0
    2.3598   -2.8473   -0.0266 H   0  0  0  0  0  0  0  0  0  0  0  0
    4.5391   -0.7617   -0.5505 H   0  0  0  0  0  0  0  0  0  0  0  0
    5.0800    0.2970    0.2970 H   0  0  0  0  0  0  0  0  0  0  0  0
    4.3859   -0.4212    3.5305 H   0  0  0  0  0  0  0  0  0  0  0  0
    4.2123    2.0225    3.2371 H   0  0  0  0  0  0  0  0  0  0  0  0
    5.6099    1.4722    2.4214 H   0  0  0  0  0  0  0  0  0  0  0  0
    3.6896    1.2367   -0.9966 H   0  0  0  0  0  0  0  0  0  0  0  0
    3.0668    2.9916   -2.0232 H   0  0  0  0  0  0  0  0  0  0  0  0
    4.4648    4.2631    1.7907 H   0  0  0  0  0  0  0  0  0  0  0  0
   -0.3446    2.0798    2.6541 H   0  0  0  0  0  0  0  0  0  0  0  0
   -0.2314   -2.1896    2.7592 H   0  0  0  0  0  0  0  0  0  0  0  0
    2.2163   -2.1287    2.5769 H   0  0  0  0  0  0  0  0  0  0  0  0
   -0.2150   -0.8382    0.9814 H   0  0  0  0  0  0  0  0  0  0  0  0
  1  2  2  0  0  0  0
  1  6  1  0  0  0  0
  1 29  1  0  0  0  0
  2  3  1  0  0  0  0
  2 30  1  0  0  0  0
  3  4  2  0  0  0  0
  3 24  1  0  0  0  0
  4  5  1  0  0  0  0
  4 31  1  0  0  0  0
  5  6  2  0  0  0  0
  5 32  1  0  0  0  0
  6  7  1  0  0  0  0
  7  8  1  0  0  0  0
  7 33  1  0  0  0  0
  7 34  1  0  0  0  0
  8  9  1  0  0  0  0
  9 10  1  0  0  0  0
  9 16  1  0  0  0  0
  9 35  1  0  0  0  0
 10 11  1  0  0  0  0
 10 36  1  0  0  0  0
 10 37  1  0  0  0  0
 11 12  1  0  0  0  0
 11 15  1  0  0  0  0
 12 13  2  0  0  0  0
 12 38  1  0  0  0  0
 13 14  1  0  0  0  0
 13 39  1  0  0  0  0
 14 15  2  0  0  0  0
 15 40  1  0  0  0  0
 16 17  2  0  0  0  0
 16 21  1  0  0  0  0
 17 18  1  0  0  0  0
 17 23  1  0  0  0  0
 18 19  2  0  0  0  0
 18 41  1  0  0  0  0
 19 20  1  0  0  0  0
 19 22  1  0  0  0  0
 20 21  2  0  0  0  0
 20 42  1  0  0  0  0
 21 43  1  0  0  0  0
 25 26  2  0  0  0  0
 25 27  1  0  0  0  0
 25 28  1  0  0  0  0
 27 44  1  0  0  0  0
M  CHG  2  25   1  28  -1
M  END
$$$$

 OpenBabel05152416213D

 42 45  0  0  0  0  0  0  0  0999 V2000
    1.4957   -0.2629    0.0337 C   0  0  0  0  0  0  0  0  0  0  0  0
    0.9999    1.0329   -0.0255 C   0  0  0  0  0  0  0  0  0  0  0  0
   -0.3725    1.2560   -0.0828 C   0  0  0  0  0  0  0  0  0  0  0  0
   -1.3060    0.1908   -0.0525 C   0  0  0  0  0  0  0  0  0  0  0  0
   -0.7586   -1.1213   -0.0106 C   0  0  0  0  0  0  0  0  0  0  0  0
    0.6162   -1.3381    0.0328 C   0  0  0  0  0  0  0  0  0  0  0  0
   -2.8415    0.4569   -0.1709 C   0  0  0  0  0  0  0  0  0  0  0  0
   -3.4264    1.2611    1.0426 C   0  0  0  0  0  0  0  0  0  0  0  0
   -4.6177    0.8409    1.6915 C   0  0  0  0  0  0  0  0  0  0  0  0
   -5.2674    1.6589    2.6132 C   0  0  0  0  0  0  0  0  0  0  0  0
   -4.7562    2.9141    2.9238 C   0  0  0  0  0  0  0  0  0  0  0  0
   -3.5708    3.3392    2.3441 C   0  0  0  0  0  0  0  0  0  0  0  0
   -2.9096    2.5272    1.4334 C   0  0  0  0  0  0  0  0  0  0  0  0
   -3.0690    1.3003   -1.4697 C   0  0  0  0  0  0  0  0  0  0  0  0
   -3.7428    2.5584   -1.4416 C   0  0  0  0  0  0  0  0  0  0  0  0
   -3.9700    3.2981   -2.5887 C   0  0  0  0  0  0  0  0  0  0  0  0
   -3.5615    2.8126   -3.8176 C   0  0  0  0  0  0  0  0  0  0  0  0
   -2.9039    1.5882   -3.8987 C   0  0  0  0  0  0  0  0  0  0  0  0
   -2.6396    0.8346   -2.7492 C   0  0  0  0  0  0  0  0  0  0  0  0
   -1.8014   -0.6981   -3.0029 Cl  0  0  0  0  0  0  0  0  0  0  0  0
   -3.5859   -0.8377   -0.2881 N   0  0  0  0  0  0  0  0  0  0  0  0
   -3.6290   -1.8397    0.6261 C   0  0  0  0  0  0  0  0  0  0  0  0
   -4.4143   -2.8535    0.1374 C   0  0  0  0  0  0  0  0  0  0  0  0
   -4.8903   -2.5005   -1.0698 N   0  0  0  0  0  0  0  0  0  0  0  0
   -4.3838   -1.2764   -1.2984 C   0  0  0  0  0  0  0  0  0  0  0  0
    2.5615   -0.4337    0.0561 H   0  0  0  0  0  0  0  0  0  0  0  0
    1.6767    1.8764   -0.0503 H   0  0  0  0  0  0  0  0  0  0  0  0
   -0.6582    2.2778   -0.1964 H   0  0  0  0  0  0  0  0  0  0  0  0
   -1.3508   -2.0132   -0.0449 H   0  0  0  0  0  0  0  0  0  0  0  0
    0.9940   -2.3515    0.0501 H   0  0  0  0  0  0  0  0  0  0  0  0
   -5.1191   -0.0826    1.4637 H   0  0  0  0  0  0  0  0  0  0  0  0
   -6.1976    1.3282    3.0524 H   0  0  0  0  0  0  0  0  0  0  0  0
   -5.2863    3.5682    3.5984 H   0  0  0  0  0  0  0  0  0  0  0  0
   -3.1742    4.3231    2.5584 H   0  0  0  0  0  0  0  0  0  0  0  0
   -2.0582    2.9842    0.9969 H   0  0  0  0  0  0  0  0  0  0  0  0
   -4.1342    3.0184   -0.5549 H   0  0  0  0  0  0  0  0  0  0  0  0
   -4.4819    4.2494   -2.5122 H   0  0  0  0  0  0  0  0  0  0  0  0
   -3.7634    3.3887   -4.7076 H   0  0  0  0  0  0  0  0  0  0  0  0
   -2.6012    1.2169   -4.8668 H   0  0  0  0  0  0  0  0  0  0  0  0
   -3.1147   -1.8309    1.5796 H   0  0  0  0  0  0  0  0  0  0  0  0
   -4.6314   -3.7908    0.6286 H   0  0  0  0  0  0  0  0  0  0  0  0
   -4.6039   -0.7232   -2.1999 H   0  0  0  0  0  0  0  0  0  0  0  0
  1  2  2  0  0  0  0
  1  6  1  0  0  0  0
  1 26  1  0  0  0  0
  2  3  1  0  0  0  0
  2 27  1  0  0  0  0
  3  4  2  0  0  0  0
  3 28  1  0  0  0  0
  4  5  1  0  0  0  0
  4  7  1  0  0  0  0
  5  6  2  0  0  0  0
  5 29  1  0  0  0  0
  6 30  1  0  0  0  0
  7  8  1  0  0  0  0
  7 14  1  0  0  0  0
  7 21  1  0  0  0  0
  8  9  2  0  0  0  0
  8 13  1  0  0  0  0
  9 10  1  0  0  0  0
  9 31  1  0  0  0  0
 10 11  2  0  0  0  0
 10 32  1  0  0  0  0
 11 12  1  0  0  0  0
 11 33  1  0  0  0  0
 12 13  2  0  0  0  0
 12 34  1  0  0  0  0
 13 35  1  0  0  0  0
 14 15  2  0  0  0  0
 14 19  1  0  0  0  0
 15 16  1  0  0  0  0
 15 36  1  0  0  0  0
 16 17  2  0  0  0  0
 16 37  1  0  0  0  0
 17 18  1  0  0  0  0
 17 38  1  0  0  0  0
 18 19  2  0  0  0  0
 18 39  1  0  0  0  0
 19 20  1  0  0  0  0
 21 22  1  0  0  0  0
 21 25  1  0  0  0  0
 22 23  2  0  0  0  0
 22 40  1  0  0  0  0
 23 24  1  0  0  0  0
 23 41  1  0  0  0  0
 24 25  2  0  0  0  0
 25 42  1  0  0  0  0
M  END
$$$$

 OpenBabel05152416213D

 30 32  0  0  1  0  0  0  0  0999 V2000
   -0.9211   -1.0483   -0.1880 C   0  0  0  0  0  0  0  0  0  0  0  0
   -1.2268    0.3165    0.4240 C   0  0  2  0  0  0  0  0  0  0  0  0
   -0.0635    1.5341   -0.2509 S   0  0  0  0  0  0  0  0  0  0  0  0
    1.2723    0.3719   -0.0275 C   0  0  0  0  0  0  0  0  0  0  0  0
    2.5169    0.8034    0.2760 C   0  0  0  0  0  0  0  0  0  0  0  0
    2.8464    2.2869    0.2431 C   0  0  0  0  0  0  0  0  0  0  0  0
    3.1198    3.5175    0.2158 N   0  0  0  0  0  0  0  0  0  0  0  0
    3.6125   -0.1140    0.4828 N   0  0  0  0  0  0  0  0  0  0  0  0
    3.9242   -1.2281   -0.2166 C   0  0  0  0  0  0  0  0  0  0  0  0
    5.0452   -1.7845    0.3519 C   0  0  0  0  0  0  0  0  0  0  0  0
    5.4365   -1.0316    1.3992 N   0  0  0  0  0  0  0  0  0  0  0  0
    4.5485   -0.0170    1.4415 C   0  0  0  0  0  0  0  0  0  0  0  0
    0.8496   -1.3885   -0.1428 S   0  0  0  0  0  0  0  0  0  0  0  0
   -1.3874    0.3880    1.9602 C   0  0  0  0  0  0  0  0  0  0  0  0
   -0.4240    0.0645    2.9812 C   0  0  0  0  0  0  0  0  0  0  0  0
   -0.7560    0.2135    4.3311 C   0  0  0  0  0  0  0  0  0  0  0  0
   -2.0081    0.6661    4.7174 C   0  0  0  0  0  0  0  0  0  0  0  0
   -2.9569    0.9753    3.7527 C   0  0  0  0  0  0  0  0  0  0  0  0
   -2.6534    0.8389    2.4001 C   0  0  0  0  0  0  0  0  0  0  0  0
   -2.3826    0.8397    6.4200 Cl  0  0  0  0  0  0  0  0  0  0  0  0
    1.2062   -0.5451    2.7876 Cl  0  0  0  0  0  0  0  0  0  0  0  0
   -1.1779   -1.0251   -1.2710 H   0  0  0  0  0  0  0  0  0  0  0  0
   -1.5171   -1.8426    0.3065 H   0  0  0  0  0  0  0  0  0  0  0  0
   -2.2030    0.5839   -0.0364 H   0  0  0  0  0  0  0  0  0  0  0  0
    3.3993   -1.5964   -1.0846 H   0  0  0  0  0  0  0  0  0  0  0  0
    5.5511   -2.6816    0.0187 H   0  0  0  0  0  0  0  0  0  0  0  0
    4.5689    0.7625    2.1950 H   0  0  0  0  0  0  0  0  0  0  0  0
   -0.0257   -0.0290    5.0949 H   0  0  0  0  0  0  0  0  0  0  0  0
   -3.9354    1.3260    4.0483 H   0  0  0  0  0  0  0  0  0  0  0  0
   -3.4284    1.0986    1.6904 H   0  0  0  0  0  0  0  0  0  0  0  0
  1  2  1  0  0  0  0
  1 13  1  0  0  0  0
  1 22  1  0  0  0  0
  1 23  1  0  0  0  0
  2  3  1  0  0  0  0
  2 24  1  6  0  0  0
  2 14  1  0  0  0  0
  3  4  1  0  0  0  0
  4  5  2  0  0  0  0
  4 13  1  0  0  0  0
  5  6  1  0  0  0  0
  5  8  1  0  0  0  0
  6  7  3  0  0  0  0
  8  9  1  0  0  0  0
  8 12  1  0  0  0  0
  9 10  2  0  0  0  0
  9 25  1  0  0  0  0
 10 11  1  0  0  0  0
 10 26  1  0  0  0  0
 11 12  2  0  0  0  0
 12 27  1  0  0  0  0
 14 15  2  0  0  0  0
 14 19  1  0  0  0  0
 15 16  1  0  0  0  0
 15 21  1  0  0  0  0
 16 17  2  0  0  0  0
 16 28  1  0  0  0  0
 17 18  1  0  0  0  0
 17 20  1  0  0  0  0
 18 19  2  0  0  0  0
 18 29  1  0  0  0  0
 19 30  1  0  0  0  0
M  END
$$$$

 OpenBabel05152416213D

151154  0  0  1  0  0  0  0  0999 V2000
    1.0220    0.0595    0.0704 C   0  0  0  0  0  0  0  0  0  0  0  0
    0.4355    1.3158   -0.5981 C   0  0  2  0  0  0  0  0  0  0  0  0
    1.3180    2.5445   -0.7981 C   0  0  0  0  0  0  0  0  0  0  0  0
    1.7386    3.0595    0.5475 C   0  0  0  0  0  0  0  0  0  0  0  0
    0.6496    3.1676    1.4930 C   0  0  1  0  0  0  0  0  0  0  0  0
    0.9031    3.7521    2.7893 C   0  0  0  0  0  0  0  0  0  0  0  0
    1.6545    5.0754    2.7071 C   0  0  1  0  0  0  0  0  0  0  0  0
    0.8241    6.1050    2.0374 C   0  0  0  0  0  0  0  0  0  0  0  0
    0.6360    7.2072    2.6712 C   0  0  0  0  0  0  0  0  0  0  0  0
    0.0435    7.9847    2.1793 C   0  0  0  0  0  0  0  0  0  0  0  0
    0.5473    9.4210    2.3278 C   0  0  0  0  0  0  0  0  0  0  0  0
   -1.0125   10.7979    1.9325 C   0  0  0  0  0  0  0  0  0  0  0  0
   -1.6132   11.3057    2.1231 C   0  0  0  0  0  0  0  0  0  0  0  0
   -3.4488   12.4196    1.4321 C   0  0  2  0  0  0  0  0  0  0  0  0
   -4.7682   12.8470    2.8086 C   0  0  0  0  0  0  0  0  0  0  0  0
   -4.6307   13.9889    4.0414 C   0  0  2  0  0  0  0  0  0  0  0  0
   -3.1323   15.8894    3.6011 C   0  0  0  0  0  0  0  0  0  0  0  0
   -2.9571   16.3738    4.8234 O   0  0  0  0  0  0  0  0  0  0  0  0
   -1.3423   15.3316    2.9110 C   0  0  1  0  0  0  0  0  0  0  0  0
    0.0988   13.9227    3.5930 C   0  0  1  0  0  0  0  0  0  0  0  0
   -0.3680   12.7578    3.5700 C   0  0  0  0  0  0  0  0  0  0  0  0
    0.5018   11.6733    3.1267 C   0  0  0  0  0  0  0  0  0  0  0  0
   -0.9295    9.6295    3.7933 C   0  0  2  0  0  0  0  0  0  0  0  0
   -1.6364    9.0563    0.9353 C   0  0  0  0  0  0  0  0  0  0  0  0
   -0.6122    9.2085    0.3359 O   0  0  0  0  0  0  0  0  0  0  0  0
   -2.6525   10.0548    0.4201 C   0  0  0  0  0  0  0  0  0  0  0  0
   -3.3748    9.8224    1.3053 C   0  0  2  0  0  0  0  0  0  0  0  0
   -3.4504   10.2705    2.4684 O   0  0  0  0  0  0  0  0  0  0  0  0
   -3.1620    9.8582    3.2336 C   0  0  0  0  0  0  0  0  0  0  0  0
   -2.3363    8.5751    2.8358 O   0  0  0  0  0  0  0  0  0  0  0  0
   -2.7579   10.5890    6.2796 C   0  0  2  0  0  0  0  0  0  0  0  0
   -4.6219   12.0312    6.0826 C   0  0  0  0  0  0  0  0  0  0  0  0
   -2.4973   13.9356    4.3739 C   0  0  0  0  0  0  0  0  0  0  0  0
   -1.3024   14.4933    5.2547 C   0  0  0  0  0  0  0  0  0  0  0  0
    0.1331   12.2045    5.6658 C   0  0  0  0  0  0  0  0  0  0  0  0
   -0.4454   10.5727    5.6840 N   0  0  0  0  0  0  0  0  0  0  0  0
   -0.3230    8.8441    5.8948 C   0  0  0  0  0  0  0  0  0  0  0  0
   -0.6669    9.0001    7.3708 O   0  0  0  0  0  0  0  0  0  0  0  0
   -1.4683    4.1121    1.0070 C   0  0  0  0  0  0  0  0  0  0  0  0
   -1.4823    4.2983   -0.7019 O   0  0  0  0  0  0  0  0  0  0  0  0
   -0.8472    1.8017    0.6763 C   0  0  2  0  0  0  0  0  0  0  0  0
   -0.1979    2.0167    1.6245 O   0  0  0  0  0  0  0  0  0  0  0  0
   -1.5125    0.4234    0.5076 O   0  0  0  0  0  0  0  0  0  0  0  0
   -3.9753    8.5976    1.2829 C   0  0  2  0  0  0  0  0  0  0  0  0
   -3.4248    7.5151    1.1728 C   0  0  0  0  0  0  0  0  0  0  0  0
   -5.1056    8.8825    0.1624 C   0  0  0  0  0  0  0  0  0  0  0  0
   -6.2968    8.3704    0.6281 C   0  0  2  0  0  0  0  0  0  0  0  0
   -7.7715    9.9272    1.1900 C   0  0  0  0  0  0  0  0  0  0  0  0
   -7.5714   10.6422    2.8580 C   0  0  0  0  0  0  0  0  0  0  0  0
   -6.8237    9.6269    4.1608 C   0  0  2  0  0  0  0  0  0  0  0  0
   -5.6070    8.5859    3.8378 C   0  0  1  0  0  0  0  0  0  0  0  0
   -5.6283    7.3270    2.6123 C   0  0  0  0  0  0  0  0  0  0  0  0
   -5.2331    9.6959    3.4531 O   0  0  0  0  0  0  0  0  0  0  0  0
   -5.5355   10.1373    2.2531 C   0  0  0  0  0  0  0  0  0  0  0  0
   -7.8960    8.9011    4.5128 O   0  0  0  0  0  0  0  0  0  0  0  0
   -7.9785    7.5567    4.0014 C   0  0  0  0  0  0  0  0  0  0  0  0
   -8.2305    7.3971    2.4846 C   0  0  0  0  0  0  0  0  0  0  0  0
   -7.5510    8.1727    2.4195 O   0  0  0  0  0  0  0  0  0  0  0  0
   -2.0565    9.1744    4.7315 C   0  0  0  0  0  0  0  0  0  0  0  0
   -1.8359   11.8180    4.6840 C   0  0  0  0  0  0  0  0  0  0  0  0
    1.0564   13.9254    3.1113 O   0  0  0  0  0  0  0  0  0  0  0  0
   -1.0313   14.8652    1.8783 O   0  0  0  0  0  0  0  0  0  0  0  0
   -1.4779   13.6747    1.6902 C   0  0  0  0  0  0  0  0  0  0  0  0
   -2.8669   13.0671    6.2203 C   0  0  0  0  0  0  0  0  0  0  0  0
   -3.4763   12.5582    0.3031 C   0  0  0  0  0  0  0  0  0  0  0  0
    0.3641    5.8925    0.6087 C   0  0  0  0  0  0  0  0  0  0  0  0
    2.0508    5.4881    3.9945 O   0  0  0  0  0  0  0  0  0  0  0  0
    0.9098    5.6552    4.8267 C   0  0  0  0  0  0  0  0  0  0  0  0
    0.6295   -0.8434   -0.4067 H   0  0  0  0  0  0  0  0  0  0  0  0
    0.6660    0.0411    1.1134 H   0  0  0  0  0  0  0  0  0  0  0  0
    2.0831    0.0463    0.0802 H   0  0  0  0  0  0  0  0  0  0  0  0
    0.3680    1.0319   -1.6943 H   0  0  0  0  0  0  0  0  0  0  0  0
    2.1926    2.3486   -1.4178 H   0  0  0  0  0  0  0  0  0  0  0  0
    0.7417    3.3044   -1.3349 H   0  0  0  0  0  0  0  0  0  0  0  0
    2.3746    2.3507    1.0341 H   0  0  0  0  0  0  0  0  0  0  0  0
    2.2677    3.9990    0.4209 H   0  0  0  0  0  0  0  0  0  0  0  0
    0.3664    3.8415    1.2064 H   0  0  0  0  0  0  0  0  0  0  0  0
   -0.0197    3.8906    3.3477 H   0  0  0  0  0  0  0  0  0  0  0  0
    1.5039    3.0066    3.2655 H   0  0  0  0  0  0  0  0  0  0  0  0
    2.5567    4.9182    2.1105 H   0  0  0  0  0  0  0  0  0  0  0  0
    1.0450    7.5521    3.5839 H   0  0  0  0  0  0  0  0  0  0  0  0
   -0.6931    7.4692    1.3686 H   0  0  0  0  0  0  0  0  0  0  0  0
    1.0143    9.8559    3.8729 H   0  0  0  0  0  0  0  0  0  0  0  0
   -1.0651   10.8135    1.3578 H   0  0  0  0  0  0  0  0  0  0  0  0
   -1.4792   11.3761    2.8161 H   0  0  0  0  0  0  0  0  0  0  0  0
   -3.0151   14.5697    1.0073 H   0  0  0  0  0  0  0  0  0  0  0  0
   -4.8664   13.7497    2.4566 H   0  0  0  0  0  0  0  0  0  0  0  0
   -4.6886   12.0240    3.0848 H   0  0  0  0  0  0  0  0  0  0  0  0
   -4.8197   13.7474    4.9392 H   0  0  0  0  0  0  0  0  0  0  0  0
   -0.9345   15.9305    3.4041 H   0  0  0  0  0  0  0  0  0  0  0  0
    0.5924   14.0838    4.9401 H   0  0  0  0  0  0  0  0  0  0  0  0
    0.9465   11.6131    2.6185 H   0  0  0  0  0  0  0  0  0  0  0  0
   -0.3819    8.5901    4.1171 H   0  0  0  0  0  0  0  0  0  0  0  0
   -1.4756   11.7021    0.0916 H   0  0  0  0  0  0  0  0  0  0  0  0
   -2.3201   10.0393   -0.2068 H   0  0  0  0  0  0  0  0  0  0  0  0
   -4.0299   10.5699    0.5885 H   0  0  0  0  0  0  0  0  0  0  0  0
   -3.1222   10.0491    6.2914 H   0  0  0  0  0  0  0  0  0  0  0  0
   -5.0481   11.9582    5.3206 H   0  0  0  0  0  0  0  0  0  0  0  0
   -4.5326   12.9919    7.0849 H   0  0  0  0  0  0  0  0  0  0  0  0
   -2.2784   13.5153    3.8059 H   0  0  0  0  0  0  0  0  0  0  0  0
   -3.0697   14.4773    4.9416 H   0  0  0  0  0  0  0  0  0  0  0  0
   -1.2001   14.6928    4.7660 H   0  0  0  0  0  0  0  0  0  0  0  0
   -0.9494   14.4518    6.0405 H   0  0  0  0  0  0  0  0  0  0  0  0
    0.0422   11.3342    4.9084 H   0  0  0  0  0  0  0  0  0  0  0  0
    0.7641   12.2483    5.1306 H   0  0  0  0  0  0  0  0  0  0  0  0
   -1.7692    0.0445   -0.4147 H   0  0  0  0  0  0  0  0  0  0  0  0
   -4.1152    8.4592    2.2530 H   0  0  0  0  0  0  0  0  0  0  0  0
   -3.0839    7.7161    0.2352 H   0  0  0  0  0  0  0  0  0  0  0  0
   -2.7131    7.3212    1.5992 H   0  0  0  0  0  0  0  0  0  0  0  0
   -3.6745    6.7248    1.5281 H   0  0  0  0  0  0  0  0  0  0  0  0
   -5.6559   10.1516   -0.0214 H   0  0  0  0  0  0  0  0  0  0  0  0
   -4.9064    8.7438   -0.4522 H   0  0  0  0  0  0  0  0  0  0  0  0
   -6.8312    7.6857    0.3960 H   0  0  0  0  0  0  0  0  0  0  0  0
   -7.8718   10.1843    0.5509 H   0  0  0  0  0  0  0  0  0  0  0  0
   -8.6388    9.5698    1.7218 H   0  0  0  0  0  0  0  0  0  0  0  0
   -6.9035   11.4696    2.7220 H   0  0  0  0  0  0  0  0  0  0  0  0
   -8.0049   11.1828    3.0363 H   0  0  0  0  0  0  0  0  0  0  0  0
   -6.3902   10.2864    4.8283 H   0  0  0  0  0  0  0  0  0  0  0  0
   -5.3323    8.0891    4.5295 H   0  0  0  0  0  0  0  0  0  0  0  0
   -6.2523    6.6809    2.9094 H   0  0  0  0  0  0  0  0  0  0  0  0
   -5.2232    6.8704    2.3224 H   0  0  0  0  0  0  0  0  0  0  0  0
   -5.5751    9.8079    1.8521 H   0  0  0  0  0  0  0  0  0  0  0  0
   -5.4574   10.7644    1.8670 H   0  0  0  0  0  0  0  0  0  0  0  0
   -5.2274   10.4749    1.8358 H   0  0  0  0  0  0  0  0  0  0  0  0
   -7.0688    7.0340    4.4946 H   0  0  0  0  0  0  0  0  0  0  0  0
   -8.7321    7.0198    4.3129 H   0  0  0  0  0  0  0  0  0  0  0  0
   -7.8898    6.5308    1.9759 H   0  0  0  0  0  0  0  0  0  0  0  0
   -8.9093    7.7744    2.0700 H   0  0  0  0  0  0  0  0  0  0  0  0
   -6.9352    8.7029    2.3873 H   0  0  0  0  0  0  0  0  0  0  0  0
   -1.9937    9.3898    5.0535 H   0  0  0  0  0  0  0  0  0  0  0  0
   -3.0109   11.7187    3.2645 H   0  0  0  0  0  0  0  0  0  0  0  0
   -3.3023    8.2097    4.3177 H   0  0  0  0  0  0  0  0  0  0  0  0
   -1.3024   11.8672    6.8285 H   0  0  0  0  0  0  0  0  0  0  0  0
   -3.4543   12.3926    4.5537 H   0  0  0  0  0  0  0  0  0  0  0  0
   -2.0102   11.2309    4.5866 H   0  0  0  0  0  0  0  0  0  0  0  0
    0.7697   13.7211    2.1928 H   0  0  0  0  0  0  0  0  0  0  0  0
   -1.4989   13.1548    1.9568 H   0  0  0  0  0  0  0  0  0  0  0  0
   -2.9637   13.8889    2.4212 H   0  0  0  0  0  0  0  0  0  0  0  0
   -1.6492   13.3017    1.1105 H   0  0  0  0  0  0  0  0  0  0  0  0
   -2.0824   13.0591    6.0917 H   0  0  0  0  0  0  0  0  0  0  0  0
   -2.7617   12.5421    6.2822 H   0  0  0  0  0  0  0  0  0  0  0  0
   -3.7827   10.9174    4.8097 H   0  0  0  0  0  0  0  0  0  0  0  0
   -2.9616   13.1485   -0.1615 H   0  0  0  0  0  0  0  0  0  0  0  0
   -3.0950   11.9361   -0.0925 H   0  0  0  0  0  0  0  0  0  0  0  0
   -4.2434   12.5028    0.4952 H   0  0  0  0  0  0  0  0  0  0  0  0
    1.0947    5.7795   -0.0622 H   0  0  0  0  0  0  0  0  0  0  0  0
   -0.3699    5.4658    0.4958 H   0  0  0  0  0  0  0  0  0  0  0  0
   -0.1797    6.4695    0.0369 H   0  0  0  0  0  0  0  0  0  0  0  0
    0.1356    6.2743    4.5024 H   0  0  0  0  0  0  0  0  0  0  0  0
    0.3374    4.7929    4.9171 H   0  0  0  0  0  0  0  0  0  0  0  0
    1.1815    6.0312    5.7755 H   0  0  0  0  0  0  0  0  0  0  0  0
  1  2  1  0  0  0  0
  1 69  1  0  0  0  0
  1 70  1  0  0  0  0
  1 71  1  0  0  0  0
  2  3  1  0  0  0  0
  2 41  1  0  0  0  0
  2 72  1  6  0  0  0
  3  4  1  0  0  0  0
  3 73  1  0  0  0  0
  3 74  1  0  0  0  0
  4  5  1  0  0  0  0
  4 75  1  0  0  0  0
  4 76  1  0  0  0  0
  5  6  1  0  0  0  0
  5 42  1  0  0  0  0
  5 77  1  1  0  0  0
  6  7  1  0  0  0  0
  6 78  1  0  0  0  0
  6 79  1  0  0  0  0
  7  8  1  0  0  0  0
  7 67  1  0  0  0  0
  7 80  1  6  0  0  0
  8  9  2  0  0  0  0
  8 66  1  0  0  0  0
  9 10  1  0  0  0  0
  9 81  1  0  0  0  0
 10 11  2  0  0  0  0
 10 82  1  0  0  0  0
 11 12  1  0  0  0  0
 11 83  1  0  0  0  0
 12 13  2  0  0  0  0
 12 84  1  0  0  0  0
 13 14  1  0  0  0  0
 13 85  1  0  0  0  0
 14 15  1  0  0  0  0
 14 86  1  1  0  0  0
 14 65  1  0  0  0  0
 15 16  1  0  0  0  0
 15 87  1  0  0  0  0
 15 88  1  0  0  0  0
 16 17  1  0  0  0  0
 16 89  1  1  0  0  0
 16 64  1  0  0  0  0
 17 18  2  0  0  0  0
 17 19  1  0  0  0  0
 19 20  1  0  0  0  0
 19 62  1  0  0  0  0
 19 90  1  1  0  0  0
 20 21  1  0  0  0  0
 20 61  1  0  0  0  0
 20 91  1  1  0  0  0
 21 22  2  0  0  0  0
 21 60  1  0  0  0  0
 22 23  1  0  0  0  0
 22 92  1  0  0  0  0
 23 24  1  0  0  0  0
 23 93  1  1  0  0  0
 23 59  1  0  0  0  0
 24 25  2  0  0  0  0
 24 26  1  0  0  0  0
 26 27  1  0  0  0  0
 26 94  1  0  0  0  0
 26 95  1  0  0  0  0
 27 28  1  0  0  0  0
 27 96  1  6  0  0  0
 27 44  1  0  0  0  0
 28 29  1  0  0  0  0
 29 30  2  0  0  0  0
 29 31  1  0  0  0  0
 31 32  1  0  0  0  0
 31 36  1  0  0  0  0
 31 97  1  1  0  0  0
 32 33  1  0  0  0  0
 32 98  1  0  0  0  0
 32 99  1  0  0  0  0
 33 34  1  0  0  0  0
 33100  1  0  0  0  0
 33101  1  0  0  0  0
 34 35  1  0  0  0  0
 34102  1  0  0  0  0
 34103  1  0  0  0  0
 35 36  1  0  0  0  0
 35104  1  0  0  0  0
 35105  1  0  0  0  0
 36 37  1  0  0  0  0
 37 38  2  0  0  0  0
 37 39  1  0  0  0  0
 39 40  2  0  0  0  0
 39 41  1  0  0  0  0
 41 42  1  0  0  0  0
 41 43  1  1  0  0  0
 43106  1  0  0  0  0
 44107  1  1  0  0  0
 44 46  1  0  0  0  0
 44 45  1  0  0  0  0
 45108  1  0  0  0  0
 45109  1  0  0  0  0
 45110  1  0  0  0  0
 46 47  1  0  0  0  0
 46111  1  0  0  0  0
 46112  1  0  0  0  0
 47 48  1  0  0  0  0
 47 52  1  0  0  0  0
 47113  1  6  0  0  0
 48 49  1  0  0  0  0
 48114  1  0  0  0  0
 48115  1  0  0  0  0
 49 50  1  0  0  0  0
 49116  1  0  0  0  0
 49117  1  0  0  0  0
 50 51  1  0  0  0  0
 50118  1  1  0  0  0
 50 55  1  0  0  0  0
 51 52  1  0  0  0  0
 51 53  1  0  0  0  0
 51119  1  1  0  0  0
 52120  1  0  0  0  0
 52121  1  0  0  0  0
 53 54  1  0  0  0  0
 54122  1  0  0  0  0
 54123  1  0  0  0  0
 54124  1  0  0  0  0
 55 56  1  0  0  0  0
 56 57  1  0  0  0  0
 56125  1  0  0  0  0
 56126  1  0  0  0  0
 57 58  1  0  0  0  0
 57127  1  0  0  0  0
 57128  1  0  0  0  0
 58129  1  0  0  0  0
 59130  1  0  0  0  0
 59131  1  0  0  0  0
 59132  1  0  0  0  0
 60133  1  0  0  0  0
 60134  1  0  0  0  0
 60135  1  0  0  0  0
 61136  1  0  0  0  0
 62 63  1  0  0  0  0
 63137  1  0  0  0  0
 63138  1  0  0  0  0
 63139  1  0  0  0  0
 64140  1  0  0  0  0
 64141  1  0  0  0  0
 64142  1  0  0  0  0
 65143  1  0  0  0  0
 65144  1  0  0  0  0
 65145  1  0  0  0  0
 66146  1  0  0  0  0
 66147  1  0  0  0  0
 66148  1  0  0  0  0
 67 68  1  0  0  0  0
 68149  1  0  0  0  0
 68150  1  0  0  0  0
 68151  1  0  0  0  0
M  END
$$$$

 OpenBabel05152416213D

 39 41  0  0  0  0  0  0  0  0999 V2000
    0.3454   -2.4919   -0.3202 C   0  0  0  0  0  0  0  0  0  0  0  0
    1.3976   -1.6230   -0.2188 C   0  0  0  0  0  0  0  0  0  0  0  0
    1.2181   -0.2539   -0.2406 C   0  0  0  0  0  0  0  0  0  0  0  0
   -0.0868    0.3072   -0.3029 C   0  0  0  0  0  0  0  0  0  0  0  0
   -1.2460   -0.7413   -0.3960 C   0  0  0  0  0  0  0  0  0  0  0  0
   -0.9091   -2.0558   -0.4219 C   0  0  0  0  0  0  0  0  0  0  0  0
   -3.1092   -0.9215   -0.2853 Cl  0  0  0  0  0  0  0  0  0  0  0  0
    0.0779    1.9190   -0.1218 C   0  0  0  0  0  0  0  0  0  0  0  0
    0.6297    2.3615    1.1456 O   0  0  0  0  0  0  0  0  0  0  0  0
   -0.1771    2.1571    2.3271 C   0  0  0  0  0  0  0  0  0  0  0  0
   -1.5666    2.9642    2.2813 C   0  0  0  0  0  0  0  0  0  0  0  0
   -2.3826    2.7905    1.0204 N   0  0  0  0  0  0  0  0  0  0  0  0
   -2.5145    1.6517    0.4510 C   0  0  0  0  0  0  0  0  0  0  0  0
   -2.9703    1.7923   -0.8562 C   0  0  0  0  0  0  0  0  0  0  0  0
   -3.2901    3.0575   -1.0238 N   0  0  0  0  0  0  0  0  0  0  0  0
   -2.9293    3.6526    0.1570 C   0  0  0  0  0  0  0  0  0  0  0  0
   -0.1610    0.6392    2.6874 C   0  0  0  0  0  0  0  0  0  0  0  0
   -1.3208   -0.1883    2.8067 C   0  0  0  0  0  0  0  0  0  0  0  0
   -1.1950   -1.5581    2.6568 C   0  0  0  0  0  0  0  0  0  0  0  0
    0.0372   -2.1791    2.6875 C   0  0  0  0  0  0  0  0  0  0  0  0
    1.1882   -1.4164    2.8734 C   0  0  0  0  0  0  0  0  0  0  0  0
    1.1025   -0.0121    2.8258 C   0  0  0  0  0  0  0  0  0  0  0  0
    0.0974   -3.9246    2.5165 Cl  0  0  0  0  0  0  0  0  0  0  0  0
   -3.0039    0.3168    3.0825 Cl  0  0  0  0  0  0  0  0  0  0  0  0
    2.7207    0.6869   -0.0653 Cl  0  0  0  0  0  0  0  0  0  0  0  0
    0.4418   -3.5498   -0.2577 H   0  0  0  0  0  0  0  0  0  0  0  0
    2.3711   -2.0361   -0.0705 H   0  0  0  0  0  0  0  0  0  0  0  0
   -1.6815   -2.8173   -0.4376 H   0  0  0  0  0  0  0  0  0  0  0  0
    0.7923    2.2940   -0.9021 H   0  0  0  0  0  0  0  0  0  0  0  0
   -0.6189    2.6789   -0.5010 H   0  0  0  0  0  0  0  0  0  0  0  0
    0.3879    2.6218    3.1759 H   0  0  0  0  0  0  0  0  0  0  0  0
   -2.1064    2.6687    3.1914 H   0  0  0  0  0  0  0  0  0  0  0  0
   -1.3651    4.0418    2.3649 H   0  0  0  0  0  0  0  0  0  0  0  0
   -2.1117    0.8598    0.9201 H   0  0  0  0  0  0  0  0  0  0  0  0
   -2.9740    1.0356   -1.6567 H   0  0  0  0  0  0  0  0  0  0  0  0
   -3.0136    4.6868    0.2913 H   0  0  0  0  0  0  0  0  0  0  0  0
   -2.0923   -2.1387    2.4941 H   0  0  0  0  0  0  0  0  0  0  0  0
    2.1431   -1.9192    2.9662 H   0  0  0  0  0  0  0  0  0  0  0  0
    2.0320    0.5517    2.8596 H   0  0  0  0  0  0  0  0  0  0  0  0
  1  2  2  0  0  0  0
  1  6  1  0  0  0  0
  1 26  1  0  0  0  0
  2  3  1  0  0  0  0
  2 27  1  0  0  0  0
  3  4  2  0  0  0  0
  3 25  1  0  0  0  0
  4  5  1  0  0  0  0
  4  8  1  0  0  0  0
  5  6  2  0  0  0  0
  5  7  1  0  0  0  0
  6 28  1  0  0  0  0
  8  9  1  0  0  0  0
  8 29  1  0  0  0  0
  8 30  1  0  0  0  0
  9 10  1  0  0  0  0
 10 11  1  0  0  0  0
 10 17  1  0  0  0  0
 10 31  1  0  0  0  0
 11 12  1  0  0  0  0
 11 32  1  0  0  0  0
 11 33  1  0  0  0  0
 12 13  1  0  0  0  0
 12 16  1  0  0  0  0
 13 14  2  0  0  0  0
 13 34  1  0  0  0  0
 14 15  1  0  0  0  0
 14 35  1  0  0  0  0
 15 16  2  0  0  0  0
 16 36  1  0  0  0  0
 17 18  2  0  0  0  0
 17 22  1  0  0  0  0
 18 19  1  0  0  0  0
 18 24  1  0  0  0  0
 19 20  2  0  0  0  0
 19 37  1  0  0  0  0
 20 21  1  0  0  0  0
 20 23  1  0  0  0  0
 21 22  2  0  0  0  0
 21 38  1  0  0  0  0
 22 39  1  0  0  0  0
M  END
$$$$

 OpenBabel05152416213D

 51 53  0  0  0  0  0  0  0  0999 V2000
    0.6271    2.4901   -1.3272 C   0  0  0  0  0  0  0  0  0  0  0  0
    0.2662    1.8646    0.0339 C   0  0  0  0  0  0  0  0  0  0  0  0
   -1.2630    2.0084    0.3535 C   0  0  0  0  0  0  0  0  0  0  0  0
   -2.1692    0.9446   -0.1647 C   0  0  0  0  0  0  0  0  0  0  0  0
   -1.6399   -0.4907    0.0529 C   0  0  0  0  0  0  0  0  0  0  0  0
   -0.0991   -0.6335    0.1482 C   0  0  0  0  0  0  0  0  0  0  0  0
    0.7862    0.4361    0.0445 C   0  0  0  0  0  0  0  0  0  0  0  0
    2.1806    0.1616   -0.0559 C   0  0  0  0  0  0  0  0  0  0  0  0
    2.6727   -1.1571   -0.0509 C   0  0  0  0  0  0  0  0  0  0  0  0
    1.7866   -2.2364    0.1126 C   0  0  0  0  0  0  0  0  0  0  0  0
    0.4406   -1.9194    0.2771 C   0  0  0  0  0  0  0  0  0  0  0  0
    2.2760   -3.6098    0.1114 N   0  0  0  0  0  0  0  0  0  0  0  0
    1.5470   -4.7890    0.1387 C   0  0  0  0  0  0  0  0  0  0  0  0
    2.1687   -5.8382    0.3016 O   0  0  0  0  0  0  0  0  0  0  0  0
    0.0533   -4.9181    0.0223 C   0  0  0  0  0  0  0  0  0  0  0  0
   -0.6987   -5.5849    1.0092 C   0  0  0  0  0  0  0  0  0  0  0  0
   -2.1078   -5.5194    1.0113 C   0  0  0  0  0  0  0  0  0  0  0  0
   -2.7908   -4.8056    0.0135 C   0  0  0  0  0  0  0  0  0  0  0  0
   -2.0534   -4.2837   -1.0407 C   0  0  0  0  0  0  0  0  0  0  0  0
   -0.6470   -4.3184   -1.0407 C   0  0  0  0  0  0  0  0  0  0  0  0
   -4.2542   -4.5210    0.0924 C   0  0  0  0  0  0  0  0  0  0  0  0
   -4.9393   -5.0334    0.9634 O   0  0  0  0  0  0  0  0  0  0  0  0
   -4.8028   -3.5750   -0.7120 O   0  0  0  0  0  0  0  0  0  0  0  0
   -2.0774   -1.1593   -1.2537 C   0  0  0  0  0  0  0  0  0  0  0  0
   -2.3191   -1.1934    1.2640 C   0  0  0  0  0  0  0  0  0  0  0  0
    0.9370    2.6113    1.1981 C   0  0  0  0  0  0  0  0  0  0  0  0
    1.7272    2.4738   -1.4952 H   0  0  0  0  0  0  0  0  0  0  0  0
    0.1443    1.9341   -2.1609 H   0  0  0  0  0  0  0  0  0  0  0  0
    0.3027    3.5483   -1.3573 H   0  0  0  0  0  0  0  0  0  0  0  0
   -1.4383    1.9777    1.4434 H   0  0  0  0  0  0  0  0  0  0  0  0
   -1.6398    2.9831   -0.0339 H   0  0  0  0  0  0  0  0  0  0  0  0
   -3.1806    1.0422    0.2951 H   0  0  0  0  0  0  0  0  0  0  0  0
   -2.3185    1.1928   -1.2387 H   0  0  0  0  0  0  0  0  0  0  0  0
    2.8953    0.9680   -0.1599 H   0  0  0  0  0  0  0  0  0  0  0  0
    3.7412   -1.3176   -0.1611 H   0  0  0  0  0  0  0  0  0  0  0  0
   -0.2440   -2.6587    0.5063 H   0  0  0  0  0  0  0  0  0  0  0  0
    3.3037   -3.7071    0.1213 H   0  0  0  0  0  0  0  0  0  0  0  0
   -0.1983   -6.0828    1.8285 H   0  0  0  0  0  0  0  0  0  0  0  0
   -2.6626   -5.9686    1.8224 H   0  0  0  0  0  0  0  0  0  0  0  0
   -2.5800   -3.7625   -1.8317 H   0  0  0  0  0  0  0  0  0  0  0  0
   -0.0996   -3.7908   -1.8149 H   0  0  0  0  0  0  0  0  0  0  0  0
   -5.7220   -3.2806   -0.6166 H   0  0  0  0  0  0  0  0  0  0  0  0
   -1.5510   -2.0602   -1.3351 H   0  0  0  0  0  0  0  0  0  0  0  0
   -3.1837   -1.2594   -1.3356 H   0  0  0  0  0  0  0  0  0  0  0  0
   -1.6893   -0.6473   -2.1615 H   0  0  0  0  0  0  0  0  0  0  0  0
   -3.4231   -1.1059    1.2034 H   0  0  0  0  0  0  0  0  0  0  0  0
   -2.1384   -2.2903    1.2897 H   0  0  0  0  0  0  0  0  0  0  0  0
   -1.9579   -0.7689    2.2208 H   0  0  0  0  0  0  0  0  0  0  0  0
    0.6553    2.1010    2.1528 H   0  0  0  0  0  0  0  0  0  0  0  0
    2.0391    2.6089    1.1466 H   0  0  0  0  0  0  0  0  0  0  0  0
    0.5650    3.6541    1.2395 H   0  0  0  0  0  0  0  0  0  0  0  0
  1  2  1  0  0  0  0
  1 27  1  0  0  0  0
  1 28  1  0  0  0  0
  1 29  1  0  0  0  0
  2  3  1  0  0  0  0
  2  7  1  0  0  0  0
  2 26  1  0  0  0  0
  3  4  1  0  0  0  0
  3 30  1  0  0  0  0
  3 31  1  0  0  0  0
  4  5  1  0  0  0  0
  4 32  1  0  0  0  0
  4 33  1  0  0  0  0
  5  6  1  0  0  0  0
  5 24  1  0  0  0  0
  5 25  1  0  0  0  0
  6  7  2  0  0  0  0
  6 11  1  0  0  0  0
  7  8  1  0  0  0  0
  8  9  2  0  0  0  0
  8 34  1  0  0  0  0
  9 10  1  0  0  0  0
  9 35  1  0  0  0  0
 10 11  2  0  0  0  0
 10 12  1  0  0  0  0
 11 36  1  0  0  0  0
 12 13  1  0  0  0  0
 12 37  1  0  0  0  0
 13 14  2  0  0  0  0
 13 15  1  0  0  0  0
 15 16  2  0  0  0  0
 15 20  1  0  0  0  0
 16 17  1  0  0  0  0
 16 38  1  0  0  0  0
 17 18  2  0  0  0  0
 17 39  1  0  0  0  0
 18 19  1  0  0  0  0
 18 21  1  0  0  0  0
 19 20  2  0  0  0  0
 19 40  1  0  0  0  0
 20 41  1  0  0  0  0
 21 22  2  0  0  0  0
 21 23  1  0  0  0  0
 23 42  1  0  0  0  0
 24 43  1  0  0  0  0
 24 44  1  0  0  0  0
 24 45  1  0  0  0  0
 25 46  1  0  0  0  0
 25 47  1  0  0  0  0
 25 48  1  0  0  0  0
 26 49  1  0  0  0  0
 26 50  1  0  0  0  0
 26 51  1  0  0  0  0
M  END
$$$$

 OpenBabel05152416213D

 48 52  0  0  0  0  0  0  0  0999 V2000
    2.7096    0.0277    0.0296 C   0  0  0  0  0  0  0  0  0  0  0  0
    1.8815    1.3562    0.1149 C   0  0  0  0  0  0  0  0  0  0  0  0
    0.4921    0.8980   -0.3278 C   0  0  0  0  0  0  0  0  0  0  0  0
    0.3972   -0.4310    0.3531 C   0  0  0  0  0  0  0  0  0  0  0  0
    1.6971   -1.1589    0.0035 C   0  0  0  0  0  0  0  0  0  0  0  0
   -1.0576   -0.3464    0.6482 C   0  0  0  0  0  0  0  0  0  0  0  0
   -0.9602    1.3318    1.1854 C   0  0  0  0  0  0  0  0  0  0  0  0
   -0.9989    1.6151   -0.1745 C   0  0  0  0  0  0  0  0  0  0  0  0
   -2.4850    0.9289   -0.2047 C   0  0  0  0  0  0  0  0  0  0  0  0
   -2.2135   -0.4876   -0.4947 C   0  0  0  0  0  0  0  0  0  0  0  0
   -3.4863   -1.3246   -0.0579 C   0  0  0  0  0  0  0  0  0  0  0  0
   -4.7738   -0.8301   -0.3705 C   0  0  0  0  0  0  0  0  0  0  0  0
   -5.9275   -1.5616   -0.1003 C   0  0  0  0  0  0  0  0  0  0  0  0
   -5.8308   -2.8087    0.5037 C   0  0  0  0  0  0  0  0  0  0  0  0
   -4.5827   -3.3221    0.8554 C   0  0  0  0  0  0  0  0  0  0  0  0
   -3.4079   -2.5883    0.5777 C   0  0  0  0  0  0  0  0  0  0  0  0
   -6.9539   -3.5310    0.7392 O   0  0  0  0  0  0  0  0  0  0  0  0
   -2.0825   -0.5238   -2.0813 C   0  0  0  0  0  0  0  0  0  0  0  0
   -1.0018    0.0241   -2.8217 C   0  0  0  0  0  0  0  0  0  0  0  0
   -0.8922    0.1429   -4.1430 C   0  0  0  0  0  0  0  0  0  0  0  0
   -1.8649   -0.3013   -4.9681 C   0  0  0  0  0  0  0  0  0  0  0  0
   -2.9937   -0.9246   -4.3443 C   0  0  0  0  0  0  0  0  0  0  0  0
   -3.0772   -1.0222   -2.9506 C   0  0  0  0  0  0  0  0  0  0  0  0
   -1.7501   -0.1598   -6.2671 O   0  0  0  0  0  0  0  0  0  0  0  0
    3.3887   -0.0108    0.9059 H   0  0  0  0  0  0  0  0  0  0  0  0
    3.2807   -0.0135   -0.9202 H   0  0  0  0  0  0  0  0  0  0  0  0
    1.8884    1.7182    1.1573 H   0  0  0  0  0  0  0  0  0  0  0  0
    2.3223    2.1694   -0.5202 H   0  0  0  0  0  0  0  0  0  0  0  0
    0.9132    0.9416   -1.2759 H   0  0  0  0  0  0  0  0  0  0  0  0
    0.6301   -0.4234    1.4516 H   0  0  0  0  0  0  0  0  0  0  0  0
    1.9912   -1.9440    0.7477 H   0  0  0  0  0  0  0  0  0  0  0  0
    1.7012   -1.6539   -0.9938 H   0  0  0  0  0  0  0  0  0  0  0  0
   -1.1103   -1.3930    0.9899 H   0  0  0  0  0  0  0  0  0  0  0  0
   -0.1515    2.0726    1.4992 H   0  0  0  0  0  0  0  0  0  0  0  0
   -1.7234    1.9907    1.7019 H   0  0  0  0  0  0  0  0  0  0  0  0
   -1.0561    2.5423   -0.7744 H   0  0  0  0  0  0  0  0  0  0  0  0
   -3.3072    1.5447   -0.5944 H   0  0  0  0  0  0  0  0  0  0  0  0
   -3.0865    0.8435    0.8202 H   0  0  0  0  0  0  0  0  0  0  0  0
   -4.9076    0.1142   -0.8695 H   0  0  0  0  0  0  0  0  0  0  0  0
   -6.8830   -1.1471   -0.3879 H   0  0  0  0  0  0  0  0  0  0  0  0
   -4.5111   -4.2955    1.3245 H   0  0  0  0  0  0  0  0  0  0  0  0
   -2.4696   -3.0473    0.8485 H   0  0  0  0  0  0  0  0  0  0  0  0
   -7.8247   -3.2024    0.4798 H   0  0  0  0  0  0  0  0  0  0  0  0
   -0.2404    0.3806   -2.4723 H   0  0  0  0  0  0  0  0  0  0  0  0
    0.0164    0.6287   -4.5581 H   0  0  0  0  0  0  0  0  0  0  0  0
   -3.7733   -1.3021   -4.9681 H   0  0  0  0  0  0  0  0  0  0  0  0
   -3.9678   -1.4924   -2.5637 H   0  0  0  0  0  0  0  0  0  0  0  0
   -0.9460    0.2865   -6.6329 H   0  0  0  0  0  0  0  0  0  0  0  0
  1  2  1  0  0  0  0
  1  5  1  0  0  0  0
  1 25  1  0  0  0  0
  1 26  1  0  0  0  0
  2  3  1  0  0  0  0
  2 27  1  0  0  0  0
  2 28  1  0  0  0  0
  3  4  1  0  0  0  0
  3  8  1  0  0  0  0
  3 29  1  0  0  0  0
  4  5  1  0  0  0  0
  4  6  1  0  0  0  0
  4 30  1  0  0  0  0
  5 31  1  0  0  0  0
  5 32  1  0  0  0  0
  6  7  1  0  0  0  0
  6 10  1  0  0  0  0
  6 33  1  0  0  0  0
  7  8  1  0  0  0  0
  7 34  1  0  0  0  0
  7 35  1  0  0  0  0
  8  9  1  0  0  0  0
  8 36  1  0  0  0  0
  9 10  1  0  0  0  0
  9 37  1  0  0  0  0
  9 38  1  0  0  0  0
 10 11  1  0  0  0  0
 10 18  1  0  0  0  0
 11 12  2  0  0  0  0
 11 16  1  0  0  0  0
 12 13  1  0  0  0  0
 12 39  1  0  0  0  0
 13 14  2  0  0  0  0
 13 40  1  0  0  0  0
 14 15  1  0  0  0  0
 14 17  1  0  0  0  0
 15 16  2  0  0  0  0
 15 41  1  0  0  0  0
 16 42  1  0  0  0  0
 17 43  1  0  0  0  0
 18 19  2  0  0  0  0
 18 23  1  0  0  0  0
 19 20  1  0  0  0  0
 19 44  1  0  0  0  0
 20 21  2  0  0  0  0
 20 45  1  0  0  0  0
 21 22  1  0  0  0  0
 21 24  1  0  0  0  0
 22 23  2  0  0  0  0
 22 46  1  0  0  0  0
 23 47  1  0  0  0  0
 24 48  1  0  0  0  0
M  END
$$$$

 OpenBabel05152416213D

 56 55  0  0  0  0  0  0  0  0999 V2000
    0.8899   -0.4510    0.1839 C   0  0  0  0  0  0  0  0  0  0  0  0
    0.4689   -0.3423    1.6219 C   0  0  0  0  0  0  0  0  0  0  0  0
    1.0633    0.9542    2.2240 C   0  0  0  0  0  0  0  0  0  0  0  0
    0.5287    2.2348    1.5300 C   0  0  0  0  0  0  0  0  0  0  0  0
   -1.0137    2.2566    1.5518 C   0  0  0  0  0  0  0  0  0  0  0  0
   -1.5178    2.1764    3.0069 C   0  0  0  0  0  0  0  0  0  0  0  0
   -0.9954    3.3895    3.8030 C   0  0  0  0  0  0  0  0  0  0  0  0
   -1.5094    4.6915    3.1521 C   0  0  0  0  0  0  0  0  0  0  0  0
   -3.0531    4.6923    3.1474 C   0  0  0  0  0  0  0  0  0  0  0  0
   -3.5716    4.5879    4.5962 C   0  0  0  0  0  0  0  0  0  0  0  0
   -3.0534    5.7849    5.4223 C   0  0  0  0  0  0  0  0  0  0  0  0
   -3.5568    7.1114    4.8158 C   0  0  0  0  0  0  0  0  0  0  0  0
   -5.0951    7.1415    4.7742 C   0  0  0  0  0  0  0  0  0  0  0  0
   -5.6605    7.0098    6.1932 C   0  0  0  0  0  0  0  0  0  0  0  0
   -5.1993    8.1381    6.9972 N   0  0  0  0  0  0  0  0  0  0  0  0
   -4.4289    8.1371    8.1001 C   0  0  0  0  0  0  0  0  0  0  0  0
   -4.2929    9.4500    8.5187 C   0  0  0  0  0  0  0  0  0  0  0  0
   -4.9690   10.2295    7.6608 N   0  3  0  0  0  0  0  0  0  0  0  0
   -5.5002    9.4210    6.7307 C   0  0  0  0  0  0  0  0  0  0  0  0
   -5.1373   11.6733    7.7120 C   0  0  0  0  0  0  0  0  0  0  0  0
    2.1482    1.3205   -2.0969 Cl  0  5  0  0  0  0  0  0  0  0  0  0
    0.4564    0.4144   -0.3481 H   0  0  0  0  0  0  0  0  0  0  0  0
    0.4982   -1.3419   -0.3330 H   0  0  0  0  0  0  0  0  0  0  0  0
    2.0019   -0.4798    0.1891 H   0  0  0  0  0  0  0  0  0  0  0  0
   -0.6405   -0.3720    1.6736 H   0  0  0  0  0  0  0  0  0  0  0  0
    0.8334   -1.2291    2.1711 H   0  0  0  0  0  0  0  0  0  0  0  0
    0.8341    0.9693    3.3076 H   0  0  0  0  0  0  0  0  0  0  0  0
    2.1694    0.9523    2.1655 H   0  0  0  0  0  0  0  0  0  0  0  0
    0.9645    3.1314    2.0175 H   0  0  0  0  0  0  0  0  0  0  0  0
    0.8843    2.3339    0.4889 H   0  0  0  0  0  0  0  0  0  0  0  0
   -1.3926    3.1465    1.0145 H   0  0  0  0  0  0  0  0  0  0  0  0
   -1.4485    1.4360    0.9572 H   0  0  0  0  0  0  0  0  0  0  0  0
   -2.6188    2.0923    3.0225 H   0  0  0  0  0  0  0  0  0  0  0  0
   -1.2229    1.2385    3.5071 H   0  0  0  0  0  0  0  0  0  0  0  0
   -1.2821    3.2950    4.8651 H   0  0  0  0  0  0  0  0  0  0  0  0
    0.1049    3.4121    3.8787 H   0  0  0  0  0  0  0  0  0  0  0  0
   -1.0800    5.5672    3.6667 H   0  0  0  0  0  0  0  0  0  0  0  0
   -1.1271    4.8419    2.1285 H   0  0  0  0  0  0  0  0  0  0  0  0
   -3.4309    5.5851    2.6212 H   0  0  0  0  0  0  0  0  0  0  0  0
   -3.4813    3.8800    2.5331 H   0  0  0  0  0  0  0  0  0  0  0  0
   -4.6718    4.5077    4.6009 H   0  0  0  0  0  0  0  0  0  0  0  0
   -3.2846    3.6401    5.0858 H   0  0  0  0  0  0  0  0  0  0  0  0
   -3.3476    5.6682    6.4771 H   0  0  0  0  0  0  0  0  0  0  0  0
   -1.9514    5.8038    5.5025 H   0  0  0  0  0  0  0  0  0  0  0  0
   -3.1622    7.9608    5.4049 H   0  0  0  0  0  0  0  0  0  0  0  0
   -3.1564    7.2756    3.7943 H   0  0  0  0  0  0  0  0  0  0  0  0
   -5.4312    8.0850    4.3038 H   0  0  0  0  0  0  0  0  0  0  0  0
   -5.5114    6.3435    4.1269 H   0  0  0  0  0  0  0  0  0  0  0  0
   -6.7639    7.0079    6.1604 H   0  0  0  0  0  0  0  0  0  0  0  0
   -5.3748    6.0497    6.6701 H   0  0  0  0  0  0  0  0  0  0  0  0
   -3.9980    7.2642    8.5775 H   0  0  0  0  0  0  0  0  0  0  0  0
   -3.7505    9.8045    9.3857 H   0  0  0  0  0  0  0  0  0  0  0  0
   -6.1002    9.7457    5.8951 H   0  0  0  0  0  0  0  0  0  0  0  0
   -4.7144   12.1328    6.7956 H   0  0  0  0  0  0  0  0  0  0  0  0
   -6.2217   11.9042    7.7762 H   0  0  0  0  0  0  0  0  0  0  0  0
   -4.6262   12.0819    8.6072 H   0  0  0  0  0  0  0  0  0  0  0  0
  1  2  1  0  0  0  0
  1 22  1  0  0  0  0
  1 23  1  0  0  0  0
  1 24  1  0  0  0  0
  2  3  1  0  0  0  0
  2 25  1  0  0  0  0
  2 26  1  0  0  0  0
  3  4  1  0  0  0  0
  3 27  1  0  0  0  0
  3 28  1  0  0  0  0
  4  5  1  0  0  0  0
  4 29  1  0  0  0  0
  4 30  1  0  0  0  0
  5  6  1  0  0  0  0
  5 31  1  0  0  0  0
  5 32  1  0  0  0  0
  6  7  1  0  0  0  0
  6 33  1  0  0  0  0
  6 34  1  0  0  0  0
  7  8  1  0  0  0  0
  7 35  1  0  0  0  0
  7 36  1  0  0  0  0
  8  9  1  0  0  0  0
  8 37  1  0  0  0  0
  8 38  1  0  0  0  0
  9 10  1  0  0  0  0
  9 39  1  0  0  0  0
  9 40  1  0  0  0  0
 10 11  1  0  0  0  0
 10 41  1  0  0  0  0
 10 42  1  0  0  0  0
 11 12  1  0  0  0  0
 11 43  1  0  0  0  0
 11 44  1  0  0  0  0
 12 13  1  0  0  0  0
 12 45  1  0  0  0  0
 12 46  1  0  0  0  0
 13 14  1  0  0  0  0
 13 47  1  0  0  0  0
 13 48  1  0  0  0  0
 14 15  1  0  0  0  0
 14 49  1  0  0  0  0
 14 50  1  0  0  0  0
 15 16  1  0  0  0  0
 15 19  1  0  0  0  0
 16 17  2  0  0  0  0
 16 51  1  0  0  0  0
 17 18  1  0  0  0  0
 17 52  1  0  0  0  0
 18 19  2  0  0  0  0
 18 20  1  0  0  0  0
 19 53  1  0  0  0  0
 20 54  1  0  0  0  0
 20 55  1  0  0  0  0
 20 56  1  0  0  0  0
M  CHG  2  18   1  21  -1
M  END
$$$$

 OpenBabel05152416213D

152159  0  0  1  0  0  0  0  0999 V2000
   -3.3666   -3.1046    4.8414 C   0  0  0  0  0  0  0  0  0  0  0  0
   -2.9171   -2.0946    4.2558 C   0  0  2  0  0  0  0  0  0  0  0  0
   -1.4767   -0.9359    4.1668 C   0  0  2  0  0  0  0  0  0  0  0  0
   -1.0467   -0.2015    6.2871 C   0  0  1  0  0  0  0  0  0  0  0  0
   -1.7185    0.6116    6.5905 C   0  0  0  0  0  0  0  0  0  0  0  0
   -2.7779   -0.8797    5.9657 C   0  0  1  0  0  0  0  0  0  0  0  0
   -3.4619   -1.2365    5.0324 O   0  0  0  0  0  0  0  0  0  0  0  0
   -2.1232   -2.1575    6.4337 O   0  0  0  0  0  0  0  0  0  0  0  0
   -0.7585   -2.5938    5.6353 C   0  0  2  0  0  0  0  0  0  0  0  0
    0.7679   -0.8535    5.2425 C   0  0  0  0  0  0  0  0  0  0  0  0
   -0.4268    0.8097    4.0374 C   0  0  1  0  0  0  0  0  0  0  0  0
   -1.2417   -0.5230    2.1499 O   0  0  0  0  0  0  0  0  0  0  0  0
   -2.5623   -1.1262    2.2953 C   0  0  1  0  0  0  0  0  0  0  0  0
   -1.1198   -3.2615    3.9161 C   0  0  2  0  0  0  0  0  0  0  0  0
   -2.1452   -4.5388    3.5897 O   0  0  0  0  0  0  0  0  0  0  0  0
   -3.9219   -0.4246    2.8118 C   0  0  0  0  0  0  0  0  0  0  0  0
   -2.1914    1.2779    4.5841 O   0  0  0  0  0  0  0  0  0  0  0  0
   -3.6249    1.1183    5.6933 C   0  0  0  0  0  0  0  0  0  0  0  0
   -3.4697   -0.5031    7.9031 C   0  0  0  0  0  0  0  0  0  0  0  0
   -4.6169   -1.6542    7.3623 C   0  0  0  0  0  0  0  0  0  0  0  0
   -4.6975   -2.6070    7.9638 C   0  0  0  0  0  0  0  0  0  0  0  0
   -5.9767   -3.0132    7.9730 C   0  0  0  0  0  0  0  0  0  0  0  0
   -7.0248   -2.6883    6.8151 C   0  0  0  0  0  0  0  0  0  0  0  0
   -8.6874   -3.4472    6.5459 C   0  0  0  0  0  0  0  0  0  0  0  0
   -9.5303   -2.9423    5.8610 O   0  0  0  0  0  0  0  0  0  0  0  0
   -8.9295   -5.4339    8.0250 C   0  0  2  0  0  0  0  0  0  0  0  0
   -7.6213   -4.7841    9.4769 C   0  0  0  0  0  0  0  0  0  0  0  0
   -6.1078   -3.9994    9.0601 C   0  0  0  0  0  0  0  0  0  0  0  0
   -7.8694   -3.9119   10.5033 C   0  0  1  0  0  0  0  0  0  0  0  0
   -9.3488   -4.1639   10.7252 C   0  0  0  0  0  0  0  0  0  0  0  0
   -9.6591   -4.3907   11.8387 O   0  0  0  0  0  0  0  0  0  0  0  0
  -10.5024   -4.2641    9.6709 C   0  0  2  0  0  0  0  0  0  0  0  0
  -10.3514   -3.3362    8.5037 C   0  0  1  0  0  0  0  0  0  0  0  0
   -9.1179   -2.4513    8.6382 C   0  0  0  0  0  0  0  0  0  0  0  0
  -11.0081   -3.8886    7.3369 O   0  0  0  0  0  0  0  0  0  0  0  0
  -11.7171   -4.1269   10.1643 O   0  0  0  0  0  0  0  0  0  0  0  0
   -6.8886   -3.9227   11.4690 O   0  0  0  0  0  0  0  0  0  0  0  0
   -6.9668   -5.0691   12.1879 C   0  0  0  0  0  0  0  0  0  0  0  0
   -7.9116   -6.8863    6.6271 O   0  0  0  0  0  0  0  0  0  0  0  0
   -5.9870   -6.3585    5.8571 C   0  0  1  0  0  0  0  0  0  0  0  0
   -4.8320   -5.2877    6.6424 C   0  0  0  0  0  0  0  0  0  0  0  0
   -3.7170   -5.2358    6.1962 C   0  0  2  0  0  0  0  0  0  0  0  0
   -3.4901   -6.4151    5.4359 C   0  0  1  0  0  0  0  0  0  0  0  0
   -4.7280   -6.7150    4.5952 C   0  0  2  0  0  0  0  0  0  0  0  0
   -5.7021   -7.0660    5.2458 O   0  0  0  0  0  0  0  0  0  0  0  0
   -4.6612   -8.0314    4.1488 C   0  0  0  0  0  0  0  0  0  0  0  0
   -2.3881   -6.5296    4.6224 O   0  0  0  0  0  0  0  0  0  0  0  0
   -2.7389   -4.6108    7.1654 O   0  0  0  0  0  0  0  0  0  0  0  0
   -2.1553   -5.4976    7.9911 C   0  0  1  0  0  0  0  0  0  0  0  0
   -2.9989   -5.4875    9.1501 C   0  0  0  0  0  0  0  0  0  0  0  0
   -3.0112   -6.6515    9.9995 C   0  0  2  0  0  0  0  0  0  0  0  0
   -2.7972   -7.9145    9.2124 C   0  0  1  0  0  0  0  0  0  0  0  0
   -1.7392   -7.7734    8.2327 C   0  0  2  0  0  0  0  0  0  0  0  0
   -1.9074   -6.7258    7.3461 O   0  0  0  0  0  0  0  0  0  0  0  0
   -1.6207   -9.1001    7.5018 C   0  0  0  0  0  0  0  0  0  0  0  0
   -2.5514   -8.9465   10.1179 O   0  0  0  0  0  0  0  0  0  0  0  0
   -4.1061   -6.8398   10.9040 O   0  0  0  0  0  0  0  0  0  0  0  0
   -5.3136   -7.4333   10.3042 C   0  0  1  0  0  0  0  0  0  0  0  0
   -5.7520   -6.5955    9.4759 C   0  0  0  0  0  0  0  0  0  0  0  0
   -6.8171   -6.8212    8.4601 C   0  0  2  0  0  0  0  0  0  0  0  0
   -6.5238   -8.2099    7.7981 C   0  0  1  0  0  0  0  0  0  0  0  0
   -6.1699   -9.0536    8.7929 C   0  0  2  0  0  0  0  0  0  0  0  0
   -5.1590   -8.6435    9.6629 O   0  0  0  0  0  0  0  0  0  0  0  0
   -5.8075  -10.2303    8.0086 C   0  0  0  0  0  0  0  0  0  0  0  0
   -7.6565   -8.9461    7.1226 O   0  0  0  0  0  0  0  0  0  0  0  0
   -7.1838   -5.0159    7.0766 C   0  0  0  0  0  0  0  0  0  0  0  0
   -7.9252   -7.3107    9.2745 O   0  0  0  0  0  0  0  0  0  0  0  0
   -6.7961   -1.8766    6.0782 C   0  0  0  0  0  0  0  0  0  0  0  0
   -5.7384   -1.2830    6.1290 C   0  0  0  0  0  0  0  0  0  0  0  0
   -5.8308   -0.0019    5.2096 C   0  0  0  0  0  0  0  0  0  0  0  0
   -4.8515    1.1121    5.0730 C   0  0  0  0  0  0  0  0  0  0  0  0
   -4.7401    1.9685    4.0050 C   0  0  0  0  0  0  0  0  0  0  0  0
   -6.7748    0.2211    4.3623 O   0  0  0  0  0  0  0  0  0  0  0  0
   -7.8660   -1.4868    5.5210 O   0  0  0  0  0  0  0  0  0  0  0  0
   -0.4632   -1.1655    7.5824 O   0  0  0  0  0  0  0  0  0  0  0  0
   -1.7625    1.1955    2.5934 O   0  0  0  0  0  0  0  0  0  0  0  0
   -3.8714   -2.9591    3.6921 H   0  0  0  0  0  0  0  0  0  0  0  0
   -3.9653   -2.9940    5.6787 H   0  0  0  0  0  0  0  0  0  0  0  0
   -2.2079   -4.1276    5.4209 H   0  0  0  0  0  0  0  0  0  0  0  0
   -2.4140   -2.9225    2.6378 H   0  0  0  0  0  0  0  0  0  0  0  0
   -0.2581   -1.3762    3.4818 H   0  0  0  0  0  0  0  0  0  0  0  0
   -0.3495    0.7466    6.1433 H   0  0  0  0  0  0  0  0  0  0  0  0
   -1.9720    1.1848    7.1976 H   0  0  0  0  0  0  0  0  0  0  0  0
   -1.9962    2.1436    6.2423 H   0  0  0  0  0  0  0  0  0  0  0  0
   -4.6991    0.1797    6.8166 H   0  0  0  0  0  0  0  0  0  0  0  0
   -1.1961   -3.0985    6.6857 H   0  0  0  0  0  0  0  0  0  0  0  0
    1.1259   -0.2002    6.6595 H   0  0  0  0  0  0  0  0  0  0  0  0
    0.7944   -1.9273    5.2576 H   0  0  0  0  0  0  0  0  0  0  0  0
   -0.0501    1.6012    4.0064 H   0  0  0  0  0  0  0  0  0  0  0  0
   -3.3526   -1.5716    1.8697 H   0  0  0  0  0  0  0  0  0  0  0  0
   -0.4086   -3.4815    3.6728 H   0  0  0  0  0  0  0  0  0  0  0  0
   -3.2857   -4.7364    3.6603 H   0  0  0  0  0  0  0  0  0  0  0  0
   -4.2371   -0.1989    3.5839 H   0  0  0  0  0  0  0  0  0  0  0  0
   -4.7827   -1.1374    3.5010 H   0  0  0  0  0  0  0  0  0  0  0  0
   -3.3625    0.0647    3.5498 H   0  0  0  0  0  0  0  0  0  0  0  0
   -2.5213   -1.1446    8.2763 H   0  0  0  0  0  0  0  0  0  0  0  0
   -3.7523   -2.9960    8.3520 H   0  0  0  0  0  0  0  0  0  0  0  0
   -9.5640   -5.8240    8.3051 H   0  0  0  0  0  0  0  0  0  0  0  0
   -7.6308   -5.5614   10.0786 H   0  0  0  0  0  0  0  0  0  0  0  0
   -5.1771   -4.0410    9.6081 H   0  0  0  0  0  0  0  0  0  0  0  0
   -5.8113   -4.7033    8.6145 H   0  0  0  0  0  0  0  0  0  0  0  0
   -7.5218   -2.9258   10.2628 H   0  0  0  0  0  0  0  0  0  0  0  0
  -10.8389   -5.2983    9.3793 H   0  0  0  0  0  0  0  0  0  0  0  0
  -10.6012   -2.3460    8.6716 H   0  0  0  0  0  0  0  0  0  0  0  0
   -8.4536   -3.2227    8.4947 H   0  0  0  0  0  0  0  0  0  0  0  0
   -8.7375   -1.7710    7.8913 H   0  0  0  0  0  0  0  0  0  0  0  0
   -8.1666   -2.7392    8.5888 H   0  0  0  0  0  0  0  0  0  0  0  0
  -10.5568   -4.6699    6.8878 H   0  0  0  0  0  0  0  0  0  0  0  0
  -11.6239   -3.2319   10.4851 H   0  0  0  0  0  0  0  0  0  0  0  0
   -7.9203   -5.4607   12.3423 H   0  0  0  0  0  0  0  0  0  0  0  0
   -6.6969   -5.8876   11.7094 H   0  0  0  0  0  0  0  0  0  0  0  0
   -6.2608   -5.0609   12.9144 H   0  0  0  0  0  0  0  0  0  0  0  0
   -5.9928   -4.8061    5.4543 H   0  0  0  0  0  0  0  0  0  0  0  0
   -4.7000   -4.5854    7.2499 H   0  0  0  0  0  0  0  0  0  0  0  0
   -4.6985   -5.7293    7.3020 H   0  0  0  0  0  0  0  0  0  0  0  0
   -4.2534   -4.7537    5.4575 H   0  0  0  0  0  0  0  0  0  0  0  0
   -3.5330   -7.1360    6.1840 H   0  0  0  0  0  0  0  0  0  0  0  0
   -5.0949   -5.8573    3.9553 H   0  0  0  0  0  0  0  0  0  0  0  0
   -5.3090   -7.9864    3.3048 H   0  0  0  0  0  0  0  0  0  0  0  0
   -3.6601   -8.1836    3.9510 H   0  0  0  0  0  0  0  0  0  0  0  0
   -4.9756   -8.8363    4.9008 H   0  0  0  0  0  0  0  0  0  0  0  0
   -2.6976   -6.4774    3.6518 H   0  0  0  0  0  0  0  0  0  0  0  0
   -1.2818   -5.0888    8.3435 H   0  0  0  0  0  0  0  0  0  0  0  0
   -3.2957   -4.5451    9.5003 H   0  0  0  0  0  0  0  0  0  0  0  0
   -3.6365   -5.7369    8.7083 H   0  0  0  0  0  0  0  0  0  0  0  0
   -2.1575   -6.3560   10.5352 H   0  0  0  0  0  0  0  0  0  0  0  0
   -3.5897   -8.1510    8.4940 H   0  0  0  0  0  0  0  0  0  0  0  0
   -0.8818   -7.4783    8.7645 H   0  0  0  0  0  0  0  0  0  0  0  0
   -1.2474   -8.8891    6.5064 H   0  0  0  0  0  0  0  0  0  0  0  0
   -0.9215   -9.7299    8.0665 H   0  0  0  0  0  0  0  0  0  0  0  0
   -2.5822   -9.6668    7.4059 H   0  0  0  0  0  0  0  0  0  0  0  0
   -1.7131   -8.6826   10.5803 H   0  0  0  0  0  0  0  0  0  0  0  0
   -6.1692   -7.4984   10.9041 H   0  0  0  0  0  0  0  0  0  0  0  0
   -5.6481   -5.7713   10.1670 H   0  0  0  0  0  0  0  0  0  0  0  0
   -5.1681   -6.5681    8.8271 H   0  0  0  0  0  0  0  0  0  0  0  0
   -5.7156   -8.0088    7.1825 H   0  0  0  0  0  0  0  0  0  0  0  0
   -7.0188   -9.1514    9.4154 H   0  0  0  0  0  0  0  0  0  0  0  0
   -6.5739  -10.9497    8.2547 H   0  0  0  0  0  0  0  0  0  0  0  0
   -5.8341  -10.1024    6.8685 H   0  0  0  0  0  0  0  0  0  0  0  0
   -4.8185  -10.4109    8.2837 H   0  0  0  0  0  0  0  0  0  0  0  0
   -8.5724   -8.8385    7.5147 H   0  0  0  0  0  0  0  0  0  0  0  0
   -8.4734   -5.2866    6.1370 H   0  0  0  0  0  0  0  0  0  0  0  0
   -7.1916   -4.6033    7.3745 H   0  0  0  0  0  0  0  0  0  0  0  0
   -7.7093   -5.1654    5.7712 H   0  0  0  0  0  0  0  0  0  0  0  0
   -8.4510   -7.3925    8.5729 H   0  0  0  0  0  0  0  0  0  0  0  0
   -4.9905    1.5339    3.0677 H   0  0  0  0  0  0  0  0  0  0  0  0
   -5.2944    2.6191    4.5064 H   0  0  0  0  0  0  0  0  0  0  0  0
   -3.7461    2.2787    3.7609 H   0  0  0  0  0  0  0  0  0  0  0  0
   -6.8482    1.0028    3.8585 H   0  0  0  0  0  0  0  0  0  0  0  0
   -8.2695   -0.8709    5.0101 H   0  0  0  0  0  0  0  0  0  0  0  0
   -0.5180   -1.0298    6.8353 H   0  0  0  0  0  0  0  0  0  0  0  0
   -2.5536    1.4137    2.2085 H   0  0  0  0  0  0  0  0  0  0  0  0
  1  2  1  0  0  0  0
  1 77  1  0  0  0  0
  1 78  1  0  0  0  0
  1 79  1  0  0  0  0
  2  3  1  0  0  0  0
  2  7  1  0  0  0  0
  2 80  1  6  0  0  0
  3  4  1  0  0  0  0
  3 81  1  6  0  0  0
  3 76  1  0  0  0  0
  4  5  1  0  0  0  0
  4 75  1  0  0  0  0
  4 82  1  6  0  0  0
  5  6  1  0  0  0  0
  5 83  1  0  0  0  0
  5 84  1  0  0  0  0
  6  7  1  0  0  0  0
  6  8  1  0  0  0  0
  6 85  1  1  0  0  0
  8  9  1  0  0  0  0
  9 10  1  0  0  0  0
  9 14  1  0  0  0  0
  9 86  1  1  0  0  0
 10 11  1  0  0  0  0
 10 87  1  0  0  0  0
 10 88  1  0  0  0  0
 11 12  1  0  0  0  0
 11 17  1  0  0  0  0
 11 89  1  6  0  0  0
 12 13  1  0  0  0  0
 13 14  1  0  0  0  0
 13 16  1  0  0  0  0
 13 90  1  6  0  0  0
 14 91  1  6  0  0  0
 14 15  1  0  0  0  0
 15 92  1  0  0  0  0
 16 93  1  0  0  0  0
 16 94  1  0  0  0  0
 16 95  1  0  0  0  0
 17 18  1  0  0  0  0
 18 19  2  0  0  0  0
 18 71  1  0  0  0  0
 19 20  1  0  0  0  0
 19 96  1  0  0  0  0
 20 21  2  0  0  0  0
 20 69  1  0  0  0  0
 21 22  1  0  0  0  0
 21 97  1  0  0  0  0
 22 23  2  0  0  0  0
 22 28  1  0  0  0  0
 23 24  1  0  0  0  0
 23 68  1  0  0  0  0
 24 25  2  0  0  0  0
 24 26  1  0  0  0  0
 26 27  1  0  0  0  0
 26 39  1  0  0  0  0
 26 98  1  1  0  0  0
 27 28  1  0  0  0  0
 27 29  1  0  0  0  0
 27 99  1  0  0  0  0
 28100  1  0  0  0  0
 28101  1  0  0  0  0
 29 30  1  0  0  0  0
 29 37  1  0  0  0  0
 29102  1  6  0  0  0
 30 31  2  0  0  0  0
 32 36  1  0  0  0  0
 32103  1  6  0  0  0
 32 33  1  0  0  0  0
 32 30  1  0  0  0  0
 33 34  1  0  0  0  0
 33 35  1  0  0  0  0
 33104  1  1  0  0  0
 34105  1  0  0  0  0
 34106  1  0  0  0  0
 34107  1  0  0  0  0
 35108  1  0  0  0  0
 36109  1  0  0  0  0
 37 38  1  0  0  0  0
 38110  1  0  0  0  0
 38111  1  0  0  0  0
 38112  1  0  0  0  0
 40 41  1  0  0  0  0
 40 45  1  0  0  0  0
 40113  1  6  0  0  0
 40 39  1  0  0  0  0
 41 42  1  0  0  0  0
 41114  1  0  0  0  0
 41115  1  0  0  0  0
 42 43  1  0  0  0  0
 42116  1  6  0  0  0
 42 48  1  0  0  0  0
 43 44  1  0  0  0  0
 43 47  1  0  0  0  0
 43117  1  1  0  0  0
 44 45  1  0  0  0  0
 44118  1  6  0  0  0
 44 46  1  0  0  0  0
 46119  1  0  0  0  0
 46120  1  0  0  0  0
 46121  1  0  0  0  0
 47122  1  0  0  0  0
 49 50  1  0  0  0  0
 49 54  1  0  0  0  0
 49123  1  1  0  0  0
 49 48  1  0  0  0  0
 50 51  1  0  0  0  0
 50124  1  0  0  0  0
 50125  1  0  0  0  0
 51 52  1  0  0  0  0
 51126  1  1  0  0  0
 51 57  1  0  0  0  0
 52 53  1  0  0  0  0
 52 56  1  0  0  0  0
 52127  1  6  0  0  0
 53 54  1  0  0  0  0
 53128  1  1  0  0  0
 53 55  1  0  0  0  0
 55129  1  0  0  0  0
 55130  1  0  0  0  0
 55131  1  0  0  0  0
 56132  1  0  0  0  0
 58 59  1  0  0  0  0
 58 63  1  0  0  0  0
 58133  1  1  0  0  0
 58 57  1  0  0  0  0
 59 60  1  0  0  0  0
 59134  1  0  0  0  0
 59135  1  0  0  0  0
 60 61  1  0  0  0  0
 60 67  1  1  0  0  0
 60 66  1  0  0  0  0
 61 62  1  0  0  0  0
 61 65  1  0  0  0  0
 61136  1  6  0  0  0
 62 63  1  0  0  0  0
 62137  1  1  0  0  0
 62 64  1  0  0  0  0
 64138  1  0  0  0  0
 64139  1  0  0  0  0
 64140  1  0  0  0  0
 65141  1  0  0  0  0
 66142  1  0  0  0  0
 66143  1  0  0  0  0
 66144  1  0  0  0  0
 67145  1  0  0  0  0
 68 69  2  0  0  0  0
 68 74  1  0  0  0  0
 69 70  1  0  0  0  0
 70 71  2  0  0  0  0
 70 73  1  0  0  0  0
 71 72  1  0  0  0  0
 72146  1  0  0  0  0
 72147  1  0  0  0  0
 72148  1  0  0  0  0
 73149  1  0  0  0  0
 74150  1  0  0  0  0
 75151  1  0  0  0  0
 76152  1  0  0  0  0
M  END
$$$$

 OpenBabel05152416213D

152159  0  0  1  0  0  0  0  0999 V2000
    3.6423   -1.3678    3.7086 C   0  0  0  0  0  0  0  0  0  0  0  0
    4.4169   -0.7322    3.2511 C   0  0  2  0  0  0  0  0  0  0  0  0
    5.3695    0.9601    2.9799 C   0  0  2  0  0  0  0  0  0  0  0  0
    3.5007    1.4605    0.9705 C   0  0  1  0  0  0  0  0  0  0  0  0
    3.4474    0.7524    0.0216 C   0  0  0  0  0  0  0  0  0  0  0  0
    3.2546   -0.5082    1.4479 C   0  0  1  0  0  0  0  0  0  0  0  0
    3.8425   -1.0479    2.3428 O   0  0  0  0  0  0  0  0  0  0  0  0
    2.3777    0.1948    2.3886 O   0  0  0  0  0  0  0  0  0  0  0  0
    3.0597    1.3285    3.3781 C   0  0  2  0  0  0  0  0  0  0  0  0
    4.4177    2.8112    2.3128 C   0  0  0  0  0  0  0  0  0  0  0  0
    5.7268    0.7777    0.8670 C   0  0  1  0  0  0  0  0  0  0  0  0
    6.5882   -0.4285    1.5421 O   0  0  0  0  0  0  0  0  0  0  0  0
    6.4553   -1.0090    2.9939 C   0  0  1  0  0  0  0  0  0  0  0  0
    3.8924    0.4987    5.0372 C   0  0  2  0  0  0  0  0  0  0  0  0
    2.8808   -1.6041    5.5814 O   0  0  0  0  0  0  0  0  0  0  0  0
    5.8814   -2.1859    2.1309 C   0  0  0  0  0  0  0  0  0  0  0  0
    5.2709   -0.3845    0.0763 O   0  0  0  0  0  0  0  0  0  0  0  0
    4.0520   -1.2846   -0.5480 C   0  0  0  0  0  0  0  0  0  0  0  0
    1.5691   -0.7834    0.1079 C   0  0  0  0  0  0  0  0  0  0  0  0
    1.2941   -2.0847    1.4145 C   0  0  0  0  0  0  0  0  0  0  0  0
    0.3015   -2.0714    2.0282 C   0  0  0  0  0  0  0  0  0  0  0  0
   -0.2145   -3.3143    2.2101 C   0  0  0  0  0  0  0  0  0  0  0  0
    0.6171   -4.4501    2.1877 C   0  0  0  0  0  0  0  0  0  0  0  0
    0.2800   -5.5331    2.8424 C   0  0  0  0  0  0  0  0  0  0  0  0
    0.8249   -6.6421    2.5648 O   0  0  0  0  0  0  0  0  0  0  0  0
   -0.9990   -5.2378    3.7927 C   0  0  2  0  0  0  0  0  0  0  0  0
   -2.2078   -4.5302    3.1332 C   0  0  0  0  0  0  0  0  0  0  0  0
   -1.6610   -3.3231    2.6448 C   0  0  0  0  0  0  0  0  0  0  0  0
   -2.6847   -4.8464    1.7468 C   0  0  1  0  0  0  0  0  0  0  0  0
   -3.4266   -6.1663    1.7085 C   0  0  0  0  0  0  0  0  0  0  0  0
   -4.4862   -6.1590    1.1577 O   0  0  0  0  0  0  0  0  0  0  0  0
   -3.0776   -7.5881    2.1304 C   0  0  2  0  0  0  0  0  0  0  0  0
   -2.2231   -7.7436    3.3071 C   0  0  1  0  0  0  0  0  0  0  0  0
   -1.4035   -8.8873    3.6802 C   0  0  0  0  0  0  0  0  0  0  0  0
   -1.1818   -7.2895    2.8114 O   0  0  0  0  0  0  0  0  0  0  0  0
   -2.4603   -8.2641    1.0320 O   0  0  0  0  0  0  0  0  0  0  0  0
   -3.5315   -3.7649    1.2499 O   0  0  0  0  0  0  0  0  0  0  0  0
   -4.6324   -3.5705    2.1205 C   0  0  0  0  0  0  0  0  0  0  0  0
   -0.6261   -4.9854    5.0280 O   0  0  0  0  0  0  0  0  0  0  0  0
    0.2692   -3.9018    4.9865 C   0  0  1  0  0  0  0  0  0  0  0  0
   -0.1281   -2.5683    4.6304 C   0  0  0  0  0  0  0  0  0  0  0  0
    0.3481   -1.2929    5.0689 C   0  0  2  0  0  0  0  0  0  0  0  0
    0.7289   -1.3169    6.4578 C   0  0  1  0  0  0  0  0  0  0  0  0
    1.2540   -2.6789    6.8209 C   0  0  2  0  0  0  0  0  0  0  0  0
    0.5956   -3.7978    6.2325 O   0  0  0  0  0  0  0  0  0  0  0  0
    1.6156   -2.4864    8.3538 C   0  0  0  0  0  0  0  0  0  0  0  0
    1.4993   -0.2295    6.8062 O   0  0  0  0  0  0  0  0  0  0  0  0
   -0.2767   -0.1239    4.6070 O   0  0  0  0  0  0  0  0  0  0  0  0
   -1.4842   -0.0752    5.3159 C   0  0  1  0  0  0  0  0  0  0  0  0
   -2.1550   -1.4256    5.5682 C   0  0  0  0  0  0  0  0  0  0  0  0
   -3.1753   -1.7660    6.3608 C   0  0  2  0  0  0  0  0  0  0  0  0
   -2.9135   -0.9990    7.5803 C   0  0  1  0  0  0  0  0  0  0  0  0
   -2.3783    0.3937    7.3775 C   0  0  2  0  0  0  0  0  0  0  0  0
   -1.2388    0.5477    6.5425 O   0  0  0  0  0  0  0  0  0  0  0  0
   -2.0710    0.9311    8.7458 C   0  0  0  0  0  0  0  0  0  0  0  0
   -3.9526   -1.1746    8.4397 O   0  0  0  0  0  0  0  0  0  0  0  0
   -3.3634   -3.1957    6.5196 O   0  0  0  0  0  0  0  0  0  0  0  0
   -2.3578   -3.9478    7.2226 C   0  0  1  0  0  0  0  0  0  0  0  0
   -1.9012   -3.4097    8.5690 C   0  0  0  0  0  0  0  0  0  0  0  0
   -0.9227   -4.2313    9.2484 C   0  0  2  0  0  0  0  0  0  0  0  0
   -1.3617   -5.5952    9.3480 C   0  0  1  0  0  0  0  0  0  0  0  0
   -1.7285   -6.0984    7.9297 C   0  0  2  0  0  0  0  0  0  0  0  0
   -2.7511   -5.3018    7.3309 O   0  0  0  0  0  0  0  0  0  0  0  0
   -2.1422   -7.5093    8.1045 C   0  0  0  0  0  0  0  0  0  0  0  0
   -0.2872   -6.3963    9.8894 O   0  0  0  0  0  0  0  0  0  0  0  0
   -0.4737   -3.6179   10.5789 C   0  0  0  0  0  0  0  0  0  0  0  0
    0.0677   -4.6261    8.5096 O   0  0  0  0  0  0  0  0  0  0  0  0
    1.8630   -4.5046    1.8324 C   0  0  0  0  0  0  0  0  0  0  0  0
    2.3483   -3.4915    1.4726 C   0  0  0  0  0  0  0  0  0  0  0  0
    3.7713   -3.7084    0.6078 C   0  0  0  0  0  0  0  0  0  0  0  0
    4.5024   -2.6773   -0.3422 C   0  0  0  0  0  0  0  0  0  0  0  0
    5.9212   -2.7113   -0.5130 C   0  0  0  0  0  0  0  0  0  0  0  0
    4.5222   -4.7395    0.7020 O   0  0  0  0  0  0  0  0  0  0  0  0
    2.4603   -5.6563    1.6220 O   0  0  0  0  0  0  0  0  0  0  0  0
    2.0191    2.3362    1.4259 O   0  0  0  0  0  0  0  0  0  0  0  0
    7.1954    1.2150    2.5811 O   0  0  0  0  0  0  0  0  0  0  0  0
    4.5024   -1.4953    4.8898 H   0  0  0  0  0  0  0  0  0  0  0  0
    2.4065   -1.4650    3.5218 H   0  0  0  0  0  0  0  0  0  0  0  0
    2.3971   -0.5107    4.1890 H   0  0  0  0  0  0  0  0  0  0  0  0
    5.5446   -0.2759    4.4007 H   0  0  0  0  0  0  0  0  0  0  0  0
    5.8561    1.7104    3.6741 H   0  0  0  0  0  0  0  0  0  0  0  0
    4.2174    2.1366    0.2844 H   0  0  0  0  0  0  0  0  0  0  0  0
    3.2456    0.7860   -0.8441 H   0  0  0  0  0  0  0  0  0  0  0  0
    4.4662    0.5422   -1.3151 H   0  0  0  0  0  0  0  0  0  0  0  0
    2.7156   -2.1427    0.2495 H   0  0  0  0  0  0  0  0  0  0  0  0
    1.8338    1.1208    3.3855 H   0  0  0  0  0  0  0  0  0  0  0  0
    3.6250    3.5816    1.2501 H   0  0  0  0  0  0  0  0  0  0  0  0
    3.9272    2.7407    3.2836 H   0  0  0  0  0  0  0  0  0  0  0  0
    6.2095    1.5491    0.4004 H   0  0  0  0  0  0  0  0  0  0  0  0
    6.3988   -1.9451    3.5263 H   0  0  0  0  0  0  0  0  0  0  0  0
    4.5273    1.2292    5.2480 H   0  0  0  0  0  0  0  0  0  0  0  0
    2.7458   -2.7161    4.8133 H   0  0  0  0  0  0  0  0  0  0  0  0
    5.3263   -2.7720    1.7902 H   0  0  0  0  0  0  0  0  0  0  0  0
    4.8423   -2.8199    2.4571 H   0  0  0  0  0  0  0  0  0  0  0  0
    5.2227   -1.8389    1.4398 H   0  0  0  0  0  0  0  0  0  0  0  0
    1.0859    0.1659    0.6585 H   0  0  0  0  0  0  0  0  0  0  0  0
   -0.0229   -1.0676    2.2771 H   0  0  0  0  0  0  0  0  0  0  0  0
   -1.6404   -5.8285    4.2712 H   0  0  0  0  0  0  0  0  0  0  0  0
   -3.1201   -4.5447    3.9129 H   0  0  0  0  0  0  0  0  0  0  0  0
   -2.1434   -2.3570    2.5792 H   0  0  0  0  0  0  0  0  0  0  0  0
   -1.9643   -3.1922    3.5071 H   0  0  0  0  0  0  0  0  0  0  0  0
   -1.7563   -4.8579    1.0715 H   0  0  0  0  0  0  0  0  0  0  0  0
   -3.9308   -8.0242    2.5304 H   0  0  0  0  0  0  0  0  0  0  0  0
   -2.7024   -7.3323    4.2528 H   0  0  0  0  0  0  0  0  0  0  0  0
   -0.7748   -9.2590    2.7957 H   0  0  0  0  0  0  0  0  0  0  0  0
   -0.6616   -8.6148    4.5117 H   0  0  0  0  0  0  0  0  0  0  0  0
   -2.1554   -9.5225    3.9603 H   0  0  0  0  0  0  0  0  0  0  0  0
   -1.1896   -6.7151    2.0113 H   0  0  0  0  0  0  0  0  0  0  0  0
   -1.6172   -7.8425    0.6504 H   0  0  0  0  0  0  0  0  0  0  0  0
   -5.2285   -4.4594    2.1756 H   0  0  0  0  0  0  0  0  0  0  0  0
   -4.4016   -3.2967    3.1511 H   0  0  0  0  0  0  0  0  0  0  0  0
   -5.2757   -2.7919    1.7592 H   0  0  0  0  0  0  0  0  0  0  0  0
    1.0461   -4.1733    4.4390 H   0  0  0  0  0  0  0  0  0  0  0  0
   -0.6619   -2.0240    3.9545 H   0  0  0  0  0  0  0  0  0  0  0  0
   -0.9205   -3.0152    4.9661 H   0  0  0  0  0  0  0  0  0  0  0  0
    0.9458   -1.4536    4.4757 H   0  0  0  0  0  0  0  0  0  0  0  0
   -0.0225   -1.1345    7.1321 H   0  0  0  0  0  0  0  0  0  0  0  0
    2.0854   -3.2180    6.4925 H   0  0  0  0  0  0  0  0  0  0  0  0
    1.7851   -3.3687    9.0575 H   0  0  0  0  0  0  0  0  0  0  0  0
    2.6472   -2.5024    8.4640 H   0  0  0  0  0  0  0  0  0  0  0  0
    0.7765   -1.9536    8.8410 H   0  0  0  0  0  0  0  0  0  0  0  0
    2.4339   -0.2655    6.7151 H   0  0  0  0  0  0  0  0  0  0  0  0
   -2.1844    0.3865    4.6704 H   0  0  0  0  0  0  0  0  0  0  0  0
   -2.4524   -1.7131    4.5643 H   0  0  0  0  0  0  0  0  0  0  0  0
   -1.4691   -1.9747    6.2977 H   0  0  0  0  0  0  0  0  0  0  0  0
   -3.9593   -1.3330    5.8004 H   0  0  0  0  0  0  0  0  0  0  0  0
   -2.0860   -1.2212    8.0317 H   0  0  0  0  0  0  0  0  0  0  0  0
   -3.1979    0.7858    6.8480 H   0  0  0  0  0  0  0  0  0  0  0  0
   -2.2261    1.9892    8.6908 H   0  0  0  0  0  0  0  0  0  0  0  0
   -2.7691    0.4763    9.4707 H   0  0  0  0  0  0  0  0  0  0  0  0
   -1.0432    0.6629    9.0681 H   0  0  0  0  0  0  0  0  0  0  0  0
   -4.6586   -0.6881    7.9745 H   0  0  0  0  0  0  0  0  0  0  0  0
   -1.5299   -3.9388    6.6473 H   0  0  0  0  0  0  0  0  0  0  0  0
   -1.1652   -2.6365    8.5474 H   0  0  0  0  0  0  0  0  0  0  0  0
   -2.7729   -3.2332    9.1940 H   0  0  0  0  0  0  0  0  0  0  0  0
   -2.2151   -5.6015    9.9800 H   0  0  0  0  0  0  0  0  0  0  0  0
   -0.8096   -6.0885    7.2888 H   0  0  0  0  0  0  0  0  0  0  0  0
   -1.8169   -8.1010    7.2458 H   0  0  0  0  0  0  0  0  0  0  0  0
   -1.6869   -7.9518    9.0146 H   0  0  0  0  0  0  0  0  0  0  0  0
   -3.2230   -7.5143    8.2246 H   0  0  0  0  0  0  0  0  0  0  0  0
    0.5188   -6.4211    9.2762 H   0  0  0  0  0  0  0  0  0  0  0  0
    0.4626   -3.0280   10.6620 H   0  0  0  0  0  0  0  0  0  0  0  0
   -1.2852   -2.9630   10.9352 H   0  0  0  0  0  0  0  0  0  0  0  0
   -0.3851   -4.4666   11.2314 H   0  0  0  0  0  0  0  0  0  0  0  0
    0.4265   -4.1534    8.0554 H   0  0  0  0  0  0  0  0  0  0  0  0
    6.5234   -3.1455    0.2693 H   0  0  0  0  0  0  0  0  0  0  0  0
    5.7047   -3.0955   -1.3827 H   0  0  0  0  0  0  0  0  0  0  0  0
    6.4586   -1.7907   -0.4957 H   0  0  0  0  0  0  0  0  0  0  0  0
    5.2934   -4.8275    0.1855 H   0  0  0  0  0  0  0  0  0  0  0  0
    3.1644   -6.0589    1.2110 H   0  0  0  0  0  0  0  0  0  0  0  0
    2.6010    1.8943    1.4296 H   0  0  0  0  0  0  0  0  0  0  0  0
    7.7419    1.2603    1.5503 H   0  0  0  0  0  0  0  0  0  0  0  0
  1  2  1  0  0  0  0
  1 77  1  0  0  0  0
  1 78  1  0  0  0  0
  1 79  1  0  0  0  0
  2  3  1  0  0  0  0
  2  7  1  0  0  0  0
  2 80  1  6  0  0  0
  3  4  1  0  0  0  0
  3 81  1  1  0  0  0
  3 76  1  0  0  0  0
  4  5  1  0  0  0  0
  4 75  1  0  0  0  0
  4 82  1  6  0  0  0
  5  6  1  0  0  0  0
  5 83  1  0  0  0  0
  5 84  1  0  0  0  0
  6  7  1  0  0  0  0
  6  8  1  0  0  0  0
  6 85  1  6  0  0  0
  8  9  1  0  0  0  0
  9 10  1  0  0  0  0
  9 14  1  0  0  0  0
  9 86  1  1  0  0  0
 10 11  1  0  0  0  0
 10 87  1  0  0  0  0
 10 88  1  0  0  0  0
 11 12  1  0  0  0  0
 11 17  1  0  0  0  0
 11 89  1  6  0  0  0
 12 13  1  0  0  0  0
 13 14  1  0  0  0  0
 13 16  1  0  0  0  0
 13 90  1  1  0  0  0
 14 91  1  1  0  0  0
 14 15  1  0  0  0  0
 15 92  1  0  0  0  0
 16 93  1  0  0  0  0
 16 94  1  0  0  0  0
 16 95  1  0  0  0  0
 17 18  1  0  0  0  0
 18 19  2  0  0  0  0
 18 71  1  0  0  0  0
 19 20  1  0  0  0  0
 19 96  1  0  0  0  0
 20 21  2  0  0  0  0
 20 69  1  0  0  0  0
 21 22  1  0  0  0  0
 21 97  1  0  0  0  0
 22 23  2  0  0  0  0
 22 28  1  0  0  0  0
 23 24  1  0  0  0  0
 23 68  1  0  0  0  0
 24 25  2  0  0  0  0
 24 26  1  0  0  0  0
 26 27  1  0  0  0  0
 26 39  1  0  0  0  0
 26 98  1  1  0  0  0
 27 28  1  0  0  0  0
 27 29  1  0  0  0  0
 27 99  1  0  0  0  0
 28100  1  0  0  0  0
 28101  1  0  0  0  0
 29 30  1  0  0  0  0
 29 37  1  0  0  0  0
 29102  1  6  0  0  0
 30 31  2  0  0  0  0
 32 36  1  0  0  0  0
 32103  1  1  0  0  0
 32 33  1  0  0  0  0
 32 30  1  0  0  0  0
 33 34  1  0  0  0  0
 33 35  1  0  0  0  0
 33104  1  1  0  0  0
 34105  1  0  0  0  0
 34106  1  0  0  0  0
 34107  1  0  0  0  0
 35108  1  0  0  0  0
 36109  1  0  0  0  0
 37 38  1  0  0  0  0
 38110  1  0  0  0  0
 38111  1  0  0  0  0
 38112  1  0  0  0  0
 40 41  1  0  0  0  0
 40 45  1  0  0  0  0
 40113  1  6  0  0  0
 40 39  1  0  0  0  0
 41 42  1  0  0  0  0
 41114  1  0  0  0  0
 41115  1  0  0  0  0
 42 43  1  0  0  0  0
 42116  1  6  0  0  0
 42 48  1  0  0  0  0
 43 44  1  0  0  0  0
 43 47  1  0  0  0  0
 43117  1  1  0  0  0
 44 45  1  0  0  0  0
 44118  1  6  0  0  0
 44 46  1  0  0  0  0
 46119  1  0  0  0  0
 46120  1  0  0  0  0
 46121  1  0  0  0  0
 47122  1  0  0  0  0
 49 50  1  0  0  0  0
 49 54  1  0  0  0  0
 49123  1  6  0  0  0
 49 48  1  0  0  0  0
 50 51  1  0  0  0  0
 50124  1  0  0  0  0
 50125  1  0  0  0  0
 51 52  1  0  0  0  0
 51126  1  6  0  0  0
 51 57  1  0  0  0  0
 52 53  1  0  0  0  0
 52 56  1  0  0  0  0
 52127  1  1  0  0  0
 53 54  1  0  0  0  0
 53128  1  6  0  0  0
 53 55  1  0  0  0  0
 55129  1  0  0  0  0
 55130  1  0  0  0  0
 55131  1  0  0  0  0
 56132  1  0  0  0  0
 58 59  1  0  0  0  0
 58 63  1  0  0  0  0
 58133  1  6  0  0  0
 58 57  1  0  0  0  0
 59 60  1  0  0  0  0
 59134  1  0  0  0  0
 59135  1  0  0  0  0
 60 61  1  0  0  0  0
 60 67  1  6  0  0  0
 60 66  1  0  0  0  0
 61 62  1  0  0  0  0
 61 65  1  0  0  0  0
 61136  1  1  0  0  0
 62 63  1  0  0  0  0
 62137  1  6  0  0  0
 62 64  1  0  0  0  0
 64138  1  0  0  0  0
 64139  1  0  0  0  0
 64140  1  0  0  0  0
 65141  1  0  0  0  0
 66142  1  0  0  0  0
 66143  1  0  0  0  0
 66144  1  0  0  0  0
 67145  1  0  0  0  0
 68 69  2  0  0  0  0
 68 74  1  0  0  0  0
 69 70  1  0  0  0  0
 70 71  2  0  0  0  0
 70 73  1  0  0  0  0
 71 72  1  0  0  0  0
 72146  1  0  0  0  0
 72147  1  0  0  0  0
 72148  1  0  0  0  0
 73149  1  0  0  0  0
 74150  1  0  0  0  0
 75151  1  0  0  0  0
 76152  1  0  0  0  0
M  END
$$$$

 OpenBabel05152416213D

 34 35  0  0  0  0  0  0  0  0999 V2000
   -1.2423   -1.4202   -0.2396 C   0  0  0  0  0  0  0  0  0  0  0  0
    0.0058   -2.0379   -0.3034 C   0  0  0  0  0  0  0  0  0  0  0  0
    1.1921   -1.2730   -0.1471 C   0  0  0  0  0  0  0  0  0  0  0  0
    1.0619    0.1614    0.0060 C   0  0  0  0  0  0  0  0  0  0  0  0
   -0.1904    0.7303   -0.0174 C   0  0  0  0  0  0  0  0  0  0  0  0
   -1.3303   -0.0380   -0.1116 C   0  0  0  0  0  0  0  0  0  0  0  0
   -2.8707    0.7711   -0.0092 Cl  0  0  0  0  0  0  0  0  0  0  0  0
    2.2565    1.4467    0.3298 Cl  0  0  0  0  0  0  0  0  0  0  0  0
    2.4792   -2.0746   -0.0639 C   0  0  0  0  0  0  0  0  0  0  0  0
    3.3569   -1.8220   -1.3251 C   0  0  0  0  0  0  0  0  0  0  0  0
    3.7051   -0.4223   -1.5661 N   0  0  0  0  0  0  0  0  0  0  0  0
    2.9791    0.5359   -2.1757 C   0  0  0  0  0  0  0  0  0  0  0  0
    3.6215    1.7210   -2.1511 N   0  0  0  0  0  0  0  0  0  0  0  0
    4.7780    1.4275   -1.5160 C   0  0  0  0  0  0  0  0  0  0  0  0
    4.8516    0.1319   -1.1681 N   0  0  0  0  0  0  0  0  0  0  0  0
    3.2248   -1.8923    1.2883 C   0  0  0  0  0  0  0  0  0  0  0  0
    2.5341   -2.2982    2.5036 O   0  0  0  0  0  0  0  0  0  0  0  0
    1.3384   -1.6107    2.9306 C   0  0  0  0  0  0  0  0  0  0  0  0
    1.4804   -0.0915    3.1509 C   0  0  0  0  0  0  0  0  0  0  0  0
    2.5827    0.3927    2.5585 F   0  0  0  0  0  0  0  0  0  0  0  0
    0.3398    0.6076    2.7719 F   0  0  0  0  0  0  0  0  0  0  0  0
    0.2639   -1.9352    2.1585 F   0  0  0  0  0  0  0  0  0  0  0  0
    0.9425   -2.1164    4.1513 F   0  0  0  0  0  0  0  0  0  0  0  0
   -2.1427   -2.0161   -0.2577 H   0  0  0  0  0  0  0  0  0  0  0  0
    0.0342   -3.1244   -0.3722 H   0  0  0  0  0  0  0  0  0  0  0  0
   -0.2711    1.8015    0.0955 H   0  0  0  0  0  0  0  0  0  0  0  0
    2.2577   -3.1725   -0.0946 H   0  0  0  0  0  0  0  0  0  0  0  0
    4.2867   -2.4226   -1.2341 H   0  0  0  0  0  0  0  0  0  0  0  0
    2.8156   -2.2015   -2.2220 H   0  0  0  0  0  0  0  0  0  0  0  0
    1.9559    0.4167   -2.5322 H   0  0  0  0  0  0  0  0  0  0  0  0
    5.5346    2.1617   -1.2669 H   0  0  0  0  0  0  0  0  0  0  0  0
    4.1277   -2.5450    1.2467 H   0  0  0  0  0  0  0  0  0  0  0  0
    3.7144   -0.9119    1.3141 H   0  0  0  0  0  0  0  0  0  0  0  0
    1.7502    0.1747    4.1766 H   0  0  0  0  0  0  0  0  0  0  0  0
  1  2  2  0  0  0  0
  1  6  1  0  0  0  0
  1 24  1  0  0  0  0
  2  3  1  0  0  0  0
  2 25  1  0  0  0  0
  3  4  2  0  0  0  0
  3  9  1  0  0  0  0
  4  5  1  0  0  0  0
  4  8  1  0  0  0  0
  5  6  2  0  0  0  0
  5 26  1  0  0  0  0
  6  7  1  0  0  0  0
  9 10  1  0  0  0  0
  9 16  1  0  0  0  0
  9 27  1  0  0  0  0
 10 11  1  0  0  0  0
 10 28  1  0  0  0  0
 10 29  1  0  0  0  0
 11 12  1  0  0  0  0
 11 15  1  0  0  0  0
 12 13  2  0  0  0  0
 12 30  1  0  0  0  0
 13 14  1  0  0  0  0
 14 15  2  0  0  0  0
 14 31  1  0  0  0  0
 16 17  1  0  0  0  0
 16 32  1  0  0  0  0
 16 33  1  0  0  0  0
 17 18  1  0  0  0  0
 18 19  1  0  0  0  0
 18 22  1  0  0  0  0
 18 23  1  0  0  0  0
 19 20  1  0  0  0  0
 19 21  1  0  0  0  0
 19 34  1  0  0  0  0
M  END
$$$$

 OpenBabel05152416213D

 69 70  0  0  0  0  0  0  0  0999 V2000
    0.4083   -0.1239   -1.2243 C   0  0  0  0  0  0  0  0  0  0  0  0
    0.0829   -0.1181    1.8550 C   0  0  0  0  0  0  0  0  0  0  0  0
    0.9311    0.8570    2.6474 O   0  0  0  0  0  0  0  0  0  0  0  0
    2.3344    1.2162    2.5660 C   0  0  0  0  0  0  0  0  0  0  0  0
    3.1900    0.4093    2.2496 O   0  0  0  0  0  0  0  0  0  0  0  0
    2.8744    2.5935    2.9454 C   0  0  0  0  0  0  0  0  0  0  0  0
    3.9975    3.3126    2.4794 C   0  0  0  0  0  0  0  0  0  0  0  0
    4.3567    4.5131    3.1091 N   0  0  0  0  0  0  0  0  0  0  0  0
    3.5002    5.1677    4.0063 C   0  0  0  0  0  0  0  0  0  0  0  0
    2.4004    4.5280    4.4904 C   0  0  0  0  0  0  0  0  0  0  0  0
    2.2154    3.0384    4.2056 C   0  0  0  0  0  0  0  0  0  0  0  0
    2.7753    2.1038    5.3289 C   0  0  0  0  0  0  0  0  0  0  0  0
    3.7554    1.0895    5.0395 C   0  0  0  0  0  0  0  0  0  0  0  0
    4.1856    0.1722    5.9683 C   0  0  0  0  0  0  0  0  0  0  0  0
    3.7367    0.2651    7.2636 C   0  0  0  0  0  0  0  0  0  0  0  0
    2.8463    1.2604    7.6137 C   0  0  0  0  0  0  0  0  0  0  0  0
    2.3498    2.1535    6.6807 C   0  0  0  0  0  0  0  0  0  0  0  0
    1.2219    3.2461    7.4139 Cl  0  0  0  0  0  0  0  0  0  0  0  0
    1.3160    5.2361    5.2437 C   0  0  0  0  0  0  0  0  0  0  0  0
    0.2386    4.6865    5.4200 O   0  0  0  0  0  0  0  0  0  0  0  0
    1.4664    6.5105    5.6404 O   0  0  0  0  0  0  0  0  0  0  0  0
    0.6151    7.2147    6.4383 C   0  0  0  0  0  0  0  0  0  0  0  0
    3.9077    6.5776    4.2766 C   0  0  0  0  0  0  0  0  0  0  0  0
    4.9416    3.0540    1.3108 C   0  0  0  0  0  0  0  0  0  0  0  0
    4.7562    3.9855    0.1947 O   0  0  0  0  0  0  0  0  0  0  0  0
    3.3948    4.1629   -0.2602 C   0  0  0  0  0  0  0  0  0  0  0  0
    2.9258    2.9479   -0.9826 C   0  0  0  0  0  0  0  0  0  0  0  0
    3.1905    1.9659    0.0091 N   0  0  0  0  0  0  0  0  0  0  0  0
    1.7682   -0.5074    0.4759 C   0  0  0  0  0  0  0  0  0  0  0  0
    0.9049    1.3221    0.3799 C   0  0  0  0  0  0  0  0  0  0  0  0
   -0.6859    1.4206    0.2124 C   0  0  0  0  0  0  0  0  0  0  0  0
   -1.5540    0.1088    0.0835 C   0  0  0  0  0  0  0  0  0  0  0  0
   -0.9768   -1.4250    0.1536 C   0  0  0  0  0  0  0  0  0  0  0  0
    0.6378   -1.8119    0.3371 C   0  0  0  0  0  0  0  0  0  0  0  0
   -3.2106    0.4334   -0.2329 S   0  0  0  0  0  0  0  0  0  0  0  0
   -3.8026    1.2637    0.9140 O   0  0  0  0  0  0  0  0  0  0  0  0
   -3.4397    1.2932   -1.4923 O   0  0  0  0  0  0  0  0  0  0  0  0
   -4.0888   -1.0175   -0.3776 O   0  0  0  0  0  0  0  0  0  0  0  0
    0.1656    0.7425   -1.8840 H   0  0  0  0  0  0  0  0  0  0  0  0
    0.6261   -1.0650   -1.8170 H   0  0  0  0  0  0  0  0  0  0  0  0
    1.5085    0.1421   -1.5787 H   0  0  0  0  0  0  0  0  0  0  0  0
   -0.9328   -0.0180    2.3006 H   0  0  0  0  0  0  0  0  0  0  0  0
    0.4656   -1.0110    2.4528 H   0  0  0  0  0  0  0  0  0  0  0  0
    5.1927    5.0178    2.7619 H   0  0  0  0  0  0  0  0  0  0  0  0
    1.1285    2.8464    4.0773 H   0  0  0  0  0  0  0  0  0  0  0  0
    4.2279    0.9411    4.0969 H   0  0  0  0  0  0  0  0  0  0  0  0
    4.8777   -0.6032    5.6672 H   0  0  0  0  0  0  0  0  0  0  0  0
    4.0849   -0.4237    8.0067 H   0  0  0  0  0  0  0  0  0  0  0  0
    2.5137    1.3443    8.6324 H   0  0  0  0  0  0  0  0  0  0  0  0
   -0.3908    7.2110    5.9802 H   0  0  0  0  0  0  0  0  0  0  0  0
    0.6126    6.7583    7.4483 H   0  0  0  0  0  0  0  0  0  0  0  0
    0.9890    8.2585    6.5096 H   0  0  0  0  0  0  0  0  0  0  0  0
    4.9298    6.5413    4.6916 H   0  0  0  0  0  0  0  0  0  0  0  0
    3.8565    7.1625    3.3384 H   0  0  0  0  0  0  0  0  0  0  0  0
    3.3776    7.1200    5.0284 H   0  0  0  0  0  0  0  0  0  0  0  0
    6.0034    3.0082    1.5692 H   0  0  0  0  0  0  0  0  0  0  0  0
    5.0604    1.9966    1.1065 H   0  0  0  0  0  0  0  0  0  0  0  0
    2.6956    4.4084    0.5934 H   0  0  0  0  0  0  0  0  0  0  0  0
    3.2663    4.9723   -0.9984 H   0  0  0  0  0  0  0  0  0  0  0  0
    1.8483    3.1614   -1.2610 H   0  0  0  0  0  0  0  0  0  0  0  0
    3.3690    2.5430   -1.8940 H   0  0  0  0  0  0  0  0  0  0  0  0
    2.9668    1.0885   -0.2986 H   0  0  0  0  0  0  0  0  0  0  0  0
    3.8769    1.2542   -0.2036 H   0  0  0  0  0  0  0  0  0  0  0  0
    2.8218   -0.8607    0.4960 H   0  0  0  0  0  0  0  0  0  0  0  0
    1.1518    2.3584    0.4460 H   0  0  0  0  0  0  0  0  0  0  0  0
   -1.1599    2.3957    0.1435 H   0  0  0  0  0  0  0  0  0  0  0  0
   -1.7021   -2.1768   -0.0364 H   0  0  0  0  0  0  0  0  0  0  0  0
    0.8705   -2.8623    0.2280 H   0  0  0  0  0  0  0  0  0  0  0  0
   -5.0231   -0.7463   -0.4845 H   0  0  0  0  0  0  0  0  0  0  0  0
  1  2  1  0  0  0  0
  1 39  1  0  0  0  0
  1 40  1  0  0  0  0
  1 41  1  0  0  0  0
  2  3  1  0  0  0  0
  2 42  1  0  0  0  0
  2 43  1  0  0  0  0
  3  4  1  0  0  0  0
  4  5  2  0  0  0  0
  4  6  1  0  0  0  0
  6  7  2  0  0  0  0
  6 11  1  0  0  0  0
  7  8  1  0  0  0  0
  7 24  1  0  0  0  0
  8  9  1  0  0  0  0
  8 44  1  0  0  0  0
  9 10  2  0  0  0  0
  9 23  1  0  0  0  0
 10 11  1  0  0  0  0
 10 19  1  0  0  0  0
 11 12  1  0  0  0  0
 11 45  1  0  0  0  0
 12 13  2  0  0  0  0
 12 17  1  0  0  0  0
 13 14  1  0  0  0  0
 13 46  1  0  0  0  0
 14 15  2  0  0  0  0
 14 47  1  0  0  0  0
 15 16  1  0  0  0  0
 15 48  1  0  0  0  0
 16 17  2  0  0  0  0
 16 49  1  0  0  0  0
 17 18  1  0  0  0  0
 19 20  2  0  0  0  0
 19 21  1  0  0  0  0
 21 22  1  0  0  0  0
 22 50  1  0  0  0  0
 22 51  1  0  0  0  0
 22 52  1  0  0  0  0
 23 53  1  0  0  0  0
 23 54  1  0  0  0  0
 23 55  1  0  0  0  0
 24 25  1  0  0  0  0
 24 56  1  0  0  0  0
 24 57  1  0  0  0  0
 25 26  1  0  0  0  0
 26 27  1  0  0  0  0
 26 58  1  0  0  0  0
 26 59  1  0  0  0  0
 27 28  1  0  0  0  0
 27 60  1  0  0  0  0
 27 61  1  0  0  0  0
 28 62  1  0  0  0  0
 28 63  1  0  0  0  0
 29 30  2  0  0  0  0
 29 34  1  0  0  0  0
 29 64  1  0  0  0  0
 30 31  1  0  0  0  0
 30 65  1  0  0  0  0
 31 32  2  0  0  0  0
 31 66  1  0  0  0  0
 32 33  1  0  0  0  0
 32 35  1  0  0  0  0
 33 34  2  0  0  0  0
 33 67  1  0  0  0  0
 34 68  1  0  0  0  0
 35 36  2  0  0  0  0
 35 37  2  0  0  0  0
 35 38  1  0  0  0  0
 38 69  1  0  0  0  0
M  END
$$$$

 OpenBabel05152416213D

 47 48  0  0  0  0  0  0  0  0999 V2000
    0.4498   -2.6143    0.1396 C   0  0  0  0  0  0  0  0  0  0  0  0
    2.1465   -1.7660    0.6623 C   0  0  0  0  0  0  0  0  0  0  0  0
    2.1435    0.3556    0.7883 C   0  0  0  0  0  0  0  0  0  0  0  0
    0.4233    1.2672    0.4265 C   0  0  0  0  0  0  0  0  0  0  0  0
   -1.0988    0.2399    0.0396 C   0  0  0  0  0  0  0  0  0  0  0  0
   -1.0633   -1.6264   -0.1465 C   0  0  0  0  0  0  0  0  0  0  0  0
   -1.9392    0.3873    1.1989 Cl  0  0  0  0  0  0  0  0  0  0  0  0
    0.1717    2.9894   -0.0059 S   0  0  0  0  0  0  0  0  0  0  0  0
   -1.7153    3.1549   -0.0221 C   0  0  0  0  0  0  0  0  0  0  0  0
   -2.5362    2.6307   -1.3380 C   0  0  0  0  0  0  0  0  0  0  0  0
   -3.0142    1.1191   -1.6445 C   0  0  0  0  0  0  0  0  0  0  0  0
   -3.9803    0.4461   -0.4983 C   0  0  0  0  0  0  0  0  0  0  0  0
   -4.5028    1.2709    0.5100 C   0  0  0  0  0  0  0  0  0  0  0  0
   -4.7259    0.8391    1.8588 C   0  0  0  0  0  0  0  0  0  0  0  0
   -4.5034   -0.4857    2.2264 C   0  0  0  0  0  0  0  0  0  0  0  0
   -4.0657   -1.3842    1.2383 C   0  0  0  0  0  0  0  0  0  0  0  0
   -3.8860   -0.9274   -0.1384 C   0  0  0  0  0  0  0  0  0  0  0  0
   -4.7786   -0.9913    3.8956 Cl  0  0  0  0  0  0  0  0  0  0  0  0
   -2.4035    3.0135    1.3856 C   0  0  0  0  0  0  0  0  0  0  0  0
   -1.6156    3.2923    2.4981 N   0  0  0  0  0  0  0  0  0  0  0  0
   -1.6233    4.5008    2.9601 C   0  0  0  0  0  0  0  0  0  0  0  0
   -1.0195    4.4381    4.1668 C   0  0  0  0  0  0  0  0  0  0  0  0
   -0.6476    3.1663    4.4656 N   0  0  0  0  0  0  0  0  0  0  0  0
   -1.0392    2.4600    3.3999 C   0  0  0  0  0  0  0  0  0  0  0  0
    3.3871    1.4702    0.4472 Cl  0  0  0  0  0  0  0  0  0  0  0  0
    0.8697   -0.5844   -0.7553 N   0  3  0  0  0  0  0  0  0  0  0  0
    0.2781   -0.0833   -1.6913 O   0  0  0  0  0  0  0  0  0  0  0  0
    0.4013   -0.7298    1.0650 O   0  0  0  0  0  0  0  0  0  0  0  0
    2.0956   -0.7112   -1.3232 O   0  5  0  0  0  0  0  0  0  0  0  0
    0.1746   -3.6295   -0.0213 H   0  0  0  0  0  0  0  0  0  0  0  0
    2.8772   -2.4660    0.4704 H   0  0  0  0  0  0  0  0  0  0  0  0
   -1.8801   -2.2867   -0.0099 H   0  0  0  0  0  0  0  0  0  0  0  0
   -1.7382    4.2647   -0.1017 H   0  0  0  0  0  0  0  0  0  0  0  0
   -3.4866    3.1632   -1.3740 H   0  0  0  0  0  0  0  0  0  0  0  0
   -1.9219    2.9950   -2.2027 H   0  0  0  0  0  0  0  0  0  0  0  0
   -3.2532    0.7035   -2.6352 H   0  0  0  0  0  0  0  0  0  0  0  0
   -1.9819    0.7801   -1.9467 H   0  0  0  0  0  0  0  0  0  0  0  0
   -4.5238    2.2946    0.2908 H   0  0  0  0  0  0  0  0  0  0  0  0
   -4.9201    1.5750    2.6503 H   0  0  0  0  0  0  0  0  0  0  0  0
   -3.7413   -2.3766    1.5875 H   0  0  0  0  0  0  0  0  0  0  0  0
   -3.4460   -1.5341   -0.8823 H   0  0  0  0  0  0  0  0  0  0  0  0
   -3.3679    3.4990    1.4651 H   0  0  0  0  0  0  0  0  0  0  0  0
   -2.8497    2.2222    1.8821 H   0  0  0  0  0  0  0  0  0  0  0  0
   -2.1119    5.3022    2.4134 H   0  0  0  0  0  0  0  0  0  0  0  0
   -0.9145    5.2843    4.7856 H   0  0  0  0  0  0  0  0  0  0  0  0
   -0.9844    1.3650    3.3322 H   0  0  0  0  0  0  0  0  0  0  0  0
   -0.1231   -0.7043    1.9226 H   0  0  0  0  0  0  0  0  0  0  0  0
  1  2  2  0  0  0  0
  1  6  1  0  0  0  0
  1 30  1  0  0  0  0
  2  3  1  0  0  0  0
  2 31  1  0  0  0  0
  3  4  2  0  0  0  0
  3 25  1  0  0  0  0
  4  5  1  0  0  0  0
  4  8  1  0  0  0  0
  5  6  2  0  0  0  0
  5  7  1  0  0  0  0
  6 32  1  0  0  0  0
  8  9  1  0  0  0  0
  9 10  1  0  0  0  0
  9 19  1  0  0  0  0
  9 33  1  0  0  0  0
 10 11  1  0  0  0  0
 10 34  1  0  0  0  0
 10 35  1  0  0  0  0
 11 12  1  0  0  0  0
 11 36  1  0  0  0  0
 11 37  1  0  0  0  0
 12 13  2  0  0  0  0
 12 17  1  0  0  0  0
 13 14  1  0  0  0  0
 13 38  1  0  0  0  0
 14 15  2  0  0  0  0
 14 39  1  0  0  0  0
 15 16  1  0  0  0  0
 15 18  1  0  0  0  0
 16 17  2  0  0  0  0
 16 40  1  0  0  0  0
 17 41  1  0  0  0  0
 19 20  1  0  0  0  0
 19 42  1  0  0  0  0
 19 43  1  0  0  0  0
 20 21  1  0  0  0  0
 20 24  1  0  0  0  0
 21 22  2  0  0  0  0
 21 44  1  0  0  0  0
 22 23  1  0  0  0  0
 22 45  1  0  0  0  0
 23 24  2  0  0  0  0
 24 46  1  0  0  0  0
 26 27  2  0  0  0  0
 26 28  1  0  0  0  0
 26 29  1  0  0  0  0
 28 47  1  0  0  0  0
M  CHG  2  26   1  29  -1
M  END
$$$$

 OpenBabel05152416213D

 50 49  0  0  0  0  0  0  0  0999 V2000
    0.0979    0.3733   -0.3434 C   0  0  0  0  0  0  0  0  0  0  0  0
    0.1573    0.4020   -1.8563 C   0  0  0  0  0  0  0  0  0  0  0  0
    0.9299   -0.8270   -2.4832 C   0  0  0  0  0  0  0  0  0  0  0  0
    0.4297   -2.1834   -1.9389 C   0  0  0  0  0  0  0  0  0  0  0  0
   -1.0926   -2.2081   -1.9733 C   0  0  0  0  0  0  0  0  0  0  0  0
   -1.5642   -1.9322   -3.4086 C   0  0  0  0  0  0  0  0  0  0  0  0
   -1.0076   -3.0163   -4.3499 C   0  0  0  0  0  0  0  0  0  0  0  0
   -1.4876   -4.4051   -3.8880 C   0  0  0  0  0  0  0  0  0  0  0  0
   -3.0237   -4.4403   -3.8211 C   0  0  0  0  0  0  0  0  0  0  0  0
   -3.6099   -4.1575   -5.2087 C   0  0  0  0  0  0  0  0  0  0  0  0
   -3.1646   -5.1845   -6.1294 N   0  0  0  0  0  0  0  0  0  0  0  0
   -3.3971   -6.5123   -5.9560 C   0  0  0  0  0  0  0  0  0  0  0  0
   -2.8753   -7.1831   -7.0205 C   0  0  0  0  0  0  0  0  0  0  0  0
   -2.3054   -6.2779   -7.8607 N   0  3  0  0  0  0  0  0  0  0  0  0
   -2.4784   -5.0802   -7.2771 C   0  0  0  0  0  0  0  0  0  0  0  0
   -1.6822   -6.5790   -9.1297 C   0  0  0  0  0  0  0  0  0  0  0  0
    2.2236    0.2109    1.4264 F   0  0  0  0  0  0  0  0  0  0  0  0
    3.4650   -0.1794    0.2798 P   0  5  0  0  0  0  0  0  0  0  0  0
    2.8676    0.6258   -1.1214 F   0  0  0  0  0  0  0  0  0  0  0  0
    2.6909   -1.6701   -0.0855 F   0  0  0  0  0  0  0  0  0  0  0  0
    4.7296   -0.6305   -0.7713 F   0  0  0  0  0  0  0  0  0  0  0  0
    4.1482    1.3429    0.6205 F   0  0  0  0  0  0  0  0  0  0  0  0
    4.1824   -0.9258    1.6257 F   0  0  0  0  0  0  0  0  0  0  0  0
   -0.1114   -0.6060    0.1442 H   0  0  0  0  0  0  0  0  0  0  0  0
   -0.3025    1.2438    0.2026 H   0  0  0  0  0  0  0  0  0  0  0  0
    1.0538    0.5686   -0.1758 H   0  0  0  0  0  0  0  0  0  0  0  0
   -0.8965    0.4519   -2.1716 H   0  0  0  0  0  0  0  0  0  0  0  0
    0.6266    1.3512   -2.1971 H   0  0  0  0  0  0  0  0  0  0  0  0
    0.8095   -0.7408   -3.5823 H   0  0  0  0  0  0  0  0  0  0  0  0
    2.0269   -0.8805   -2.4128 H   0  0  0  0  0  0  0  0  0  0  0  0
    0.9107   -3.0092   -2.5093 H   0  0  0  0  0  0  0  0  0  0  0  0
    0.7269   -2.4055   -0.9032 H   0  0  0  0  0  0  0  0  0  0  0  0
   -1.4604   -3.1565   -1.5437 H   0  0  0  0  0  0  0  0  0  0  0  0
   -1.5269   -1.4616   -1.2879 H   0  0  0  0  0  0  0  0  0  0  0  0
   -2.6617   -1.8421   -3.4144 H   0  0  0  0  0  0  0  0  0  0  0  0
   -1.2644   -0.9408   -3.7894 H   0  0  0  0  0  0  0  0  0  0  0  0
   -1.2993   -2.7835   -5.3859 H   0  0  0  0  0  0  0  0  0  0  0  0
    0.0975   -3.0061   -4.4169 H   0  0  0  0  0  0  0  0  0  0  0  0
   -1.0938   -5.1786   -4.5722 H   0  0  0  0  0  0  0  0  0  0  0  0
   -1.0705   -4.6805   -2.8965 H   0  0  0  0  0  0  0  0  0  0  0  0
   -3.3515   -5.4284   -3.4495 H   0  0  0  0  0  0  0  0  0  0  0  0
   -3.4351   -3.7263   -3.0801 H   0  0  0  0  0  0  0  0  0  0  0  0
   -4.7121   -4.1625   -5.1481 H   0  0  0  0  0  0  0  0  0  0  0  0
   -3.3387   -3.1455   -5.5878 H   0  0  0  0  0  0  0  0  0  0  0  0
   -3.9185   -6.9345   -5.1108 H   0  0  0  0  0  0  0  0  0  0  0  0
   -2.9140   -8.2480   -7.1865 H   0  0  0  0  0  0  0  0  0  0  0  0
   -2.1210   -4.1359   -7.7035 H   0  0  0  0  0  0  0  0  0  0  0  0
   -2.2189   -6.0312   -9.9348 H   0  0  0  0  0  0  0  0  0  0  0  0
   -0.6147   -6.2747   -9.1177 H   0  0  0  0  0  0  0  0  0  0  0  0
   -1.7494   -7.6673   -9.3454 H   0  0  0  0  0  0  0  0  0  0  0  0
  1  2  1  0  0  0  0
  1 24  1  0  0  0  0
  1 25  1  0  0  0  0
  1 26  1  0  0  0  0
  2  3  1  0  0  0  0
  2 27  1  0  0  0  0
  2 28  1  0  0  0  0
  3  4  1  0  0  0  0
  3 29  1  0  0  0  0
  3 30  1  0  0  0  0
  4  5  1  0  0  0  0
  4 31  1  0  0  0  0
  4 32  1  0  0  0  0
  5  6  1  0  0  0  0
  5 33  1  0  0  0  0
  5 34  1  0  0  0  0
  6  7  1  0  0  0  0
  6 35  1  0  0  0  0
  6 36  1  0  0  0  0
  7  8  1  0  0  0  0
  7 37  1  0  0  0  0
  7 38  1  0  0  0  0
  8  9  1  0  0  0  0
  8 39  1  0  0  0  0
  8 40  1  0  0  0  0
  9 10  1  0  0  0  0
  9 41  1  0  0  0  0
  9 42  1  0  0  0  0
 10 11  1  0  0  0  0
 10 43  1  0  0  0  0
 10 44  1  0  0  0  0
 11 12  1  0  0  0  0
 11 15  1  0  0  0  0
 12 13  2  0  0  0  0
 12 45  1  0  0  0  0
 13 14  1  0  0  0  0
 13 46  1  0  0  0  0
 14 15  2  0  0  0  0
 14 16  1  0  0  0  0
 15 47  1  0  0  0  0
 16 48  1  0  0  0  0
 16 49  1  0  0  0  0
 16 50  1  0  0  0  0
 17 18  1  0  0  0  0
 18 19  1  0  0  0  0
 18 20  1  0  0  0  0
 18 21  1  0  0  0  0
 18 22  1  0  0  0  0
 18 23  1  0  0  0  0
M  CHG  2  14   1  18  -1
M  END
$$$$

 OpenBabel05152416213D

 14 14  0  0  0  0  0  0  0  0999 V2000
   -0.6957    1.1704   -0.0002 C   0  0  0  0  0  0  0  0  0  0  0  0
    0.7010    1.1550    0.0010 C   0  0  0  0  0  0  0  0  0  0  0  0
    1.3897   -0.0579    0.0008 C   0  0  0  0  0  0  0  0  0  0  0  0
    0.6870   -1.2640    0.0005 C   0  0  0  0  0  0  0  0  0  0  0  0
   -0.7174   -1.2622   -0.0001 C   0  0  0  0  0  0  0  0  0  0  0  0
   -1.4126   -0.0323   -0.0012 C   0  0  0  0  0  0  0  0  0  0  0  0
   -3.5296    0.0839   -0.0042 I   0  0  0  0  0  0  0  0  0  0  0  0
   -1.3715   -2.4433    0.0006 O   0  0  0  0  0  0  0  0  0  0  0  0
    1.7856   -3.0705    0.0024 I   0  0  0  0  0  0  0  0  0  0  0  0
    1.4886    2.4550    0.0045 C   0  0  0  0  0  0  0  0  0  0  0  0
    2.1420    3.5335    0.0074 N   0  0  0  0  0  0  0  0  0  0  0  0
   -1.2247    2.1157   -0.0001 H   0  0  0  0  0  0  0  0  0  0  0  0
    2.4730   -0.0637    0.0017 H   0  0  0  0  0  0  0  0  0  0  0  0
   -2.3340   -2.5177    0.0023 H   0  0  0  0  0  0  0  0  0  0  0  0
  1  2  2  0  0  0  0
  1  6  1  0  0  0  0
  1 12  1  0  0  0  0
  2  3  1  0  0  0  0
  2 10  1  0  0  0  0
  3  4  2  0  0  0  0
  3 13  1  0  0  0  0
  4  5  1  0  0  0  0
  4  9  1  0  0  0  0
  5  6  2  0  0  0  0
  5  8  1  0  0  0  0
  6  7  1  0  0  0  0
  8 14  1  0  0  0  0
 10 11  3  0  0  0  0
M  END
$$$$

 OpenBabel05152416213D

 29 28  0  0  0  0  0  0  0  0999 V2000
    0.9668   -0.0715    0.0765 C   0  0  0  0  0  0  0  0  0  0  0  0
    0.5306    0.6567    1.3478 C   0  0  0  0  0  0  0  0  0  0  0  0
    0.9282    2.1444    1.3541 C   0  0  0  0  0  0  0  0  0  0  0  0
    0.3615    2.9433    0.1725 C   0  0  0  0  0  0  0  0  0  0  0  0
   -1.7940    2.8732    0.0937 Sn  0  0  0  0  0  0  0  0  0  0  0  0
   -2.4161    3.8013    1.9400 C   0  0  0  0  0  0  0  0  0  0  0  0
   -1.9628    5.2642    2.0391 C   0  0  0  0  0  0  0  0  0  0  0  0
   -2.4811    6.1556    0.8955 C   0  0  0  0  0  0  0  0  0  0  0  0
   -4.0065    6.1748    0.7992 C   0  0  0  0  0  0  0  0  0  0  0  0
   -2.5528    3.9360   -1.8710 Cl  0  0  0  0  0  0  0  0  0  0  0  0
   -2.7243    0.7109   -0.0622 Cl  0  0  0  0  0  0  0  0  0  0  0  0
    0.4968    0.3719   -0.8255 H   0  0  0  0  0  0  0  0  0  0  0  0
    0.6433   -1.1318    0.1270 H   0  0  0  0  0  0  0  0  0  0  0  0
    2.0708   -0.0301   -0.0259 H   0  0  0  0  0  0  0  0  0  0  0  0
   -0.5625    0.5639    1.4706 H   0  0  0  0  0  0  0  0  0  0  0  0
    0.9903    0.1583    2.2259 H   0  0  0  0  0  0  0  0  0  0  0  0
    0.5655    2.5976    2.3023 H   0  0  0  0  0  0  0  0  0  0  0  0
    2.0364    2.2236    1.3397 H   0  0  0  0  0  0  0  0  0  0  0  0
    0.6715    4.0058    0.2776 H   0  0  0  0  0  0  0  0  0  0  0  0
    0.7754    2.5793   -0.7883 H   0  0  0  0  0  0  0  0  0  0  0  0
   -3.5163    3.7186    2.0393 H   0  0  0  0  0  0  0  0  0  0  0  0
   -1.9704    3.2307    2.7838 H   0  0  0  0  0  0  0  0  0  0  0  0
   -2.3098    5.6805    3.0091 H   0  0  0  0  0  0  0  0  0  0  0  0
   -0.8515    5.2982    2.0307 H   0  0  0  0  0  0  0  0  0  0  0  0
   -2.1156    7.1912    1.0533 H   0  0  0  0  0  0  0  0  0  0  0  0
   -2.0542    5.8148   -0.0637 H   0  0  0  0  0  0  0  0  0  0  0  0
   -4.4424    6.5684    1.7406 H   0  0  0  0  0  0  0  0  0  0  0  0
   -4.3166    6.8227   -0.0467 H   0  0  0  0  0  0  0  0  0  0  0  0
   -4.4125    5.1612    0.6015 H   0  0  0  0  0  0  0  0  0  0  0  0
  1  2  1  0  0  0  0
  1 12  1  0  0  0  0
  1 13  1  0  0  0  0
  1 14  1  0  0  0  0
  2  3  1  0  0  0  0
  2 15  1  0  0  0  0
  2 16  1  0  0  0  0
  3  4  1  0  0  0  0
  3 17  1  0  0  0  0
  3 18  1  0  0  0  0
  4  5  1  0  0  0  0
  4 19  1  0  0  0  0
  4 20  1  0  0  0  0
  5  6  1  0  0  0  0
  5 10  1  0  0  0  0
  5 11  1  0  0  0  0
  6  7  1  0  0  0  0
  6 21  1  0  0  0  0
  6 22  1  0  0  0  0
  7  8  1  0  0  0  0
  7 23  1  0  0  0  0
  7 24  1  0  0  0  0
  8  9  1  0  0  0  0
  8 25  1  0  0  0  0
  8 26  1  0  0  0  0
  9 27  1  0  0  0  0
  9 28  1  0  0  0  0
  9 29  1  0  0  0  0
M  END
$$$$

 OpenBabel05152416213D

 33 34  0  0  0  0  0  0  0  0999 V2000
    1.2883    0.5181   -0.0185 C   0  0  0  0  0  0  0  0  0  0  0  0
    0.4378    1.6050    0.1359 C   0  0  0  0  0  0  0  0  0  0  0  0
   -1.1316    1.7796    0.4476 C   0  0  0  0  0  0  0  0  0  0  0  0
   -1.4337    1.9530    1.8010 O   0  0  0  0  0  0  0  0  0  0  0  0
   -1.1391    0.7528    2.5336 C   0  0  0  0  0  0  0  0  0  0  0  0
   -1.8678   -0.5867    1.9996 C   0  0  0  0  0  0  0  0  0  0  0  0
   -1.4668   -1.2534    0.6895 N   0  0  0  0  0  0  0  0  0  0  0  0
   -1.1478   -0.8079   -0.5783 C   0  0  0  0  0  0  0  0  0  0  0  0
   -0.7355   -1.7756   -1.3697 C   0  0  0  0  0  0  0  0  0  0  0  0
   -0.8843   -2.9389   -0.7224 N   0  0  0  0  0  0  0  0  0  0  0  0
   -1.3542   -2.6000    0.4959 C   0  0  0  0  0  0  0  0  0  0  0  0
    0.3729    0.6836    2.7686 C   0  0  0  0  0  0  0  0  0  0  0  0
    1.1622   -0.5082    2.7569 C   0  0  0  0  0  0  0  0  0  0  0  0
    2.5441   -0.4121    2.6919 C   0  0  0  0  0  0  0  0  0  0  0  0
    3.1840    0.8179    2.6517 C   0  0  0  0  0  0  0  0  0  0  0  0
    2.4449    1.9938    2.7119 C   0  0  0  0  0  0  0  0  0  0  0  0
    1.0568    1.9366    2.8008 C   0  0  0  0  0  0  0  0  0  0  0  0
    4.9223    0.8629    2.4894 Cl  0  0  0  0  0  0  0  0  0  0  0  0
    0.6211   -2.1793    2.7409 Cl  0  0  0  0  0  0  0  0  0  0  0  0
    1.0963   -0.5528    0.0119 H   0  0  0  0  0  0  0  0  0  0  0  0
    2.3646    0.6547   -0.1203 H   0  0  0  0  0  0  0  0  0  0  0  0
    0.9913    2.5260    0.1637 H   0  0  0  0  0  0  0  0  0  0  0  0
   -1.5178    2.5510   -0.2500 H   0  0  0  0  0  0  0  0  0  0  0  0
   -2.0274    1.1877    0.1768 H   0  0  0  0  0  0  0  0  0  0  0  0
   -1.5708    0.9740    3.5400 H   0  0  0  0  0  0  0  0  0  0  0  0
   -1.7095   -1.2990    2.8437 H   0  0  0  0  0  0  0  0  0  0  0  0
   -2.9695   -0.4910    2.0650 H   0  0  0  0  0  0  0  0  0  0  0  0
   -1.0548    0.1200   -1.0803 H   0  0  0  0  0  0  0  0  0  0  0  0
   -0.3255   -1.5509   -2.3537 H   0  0  0  0  0  0  0  0  0  0  0  0
   -1.5914   -3.3371    1.2484 H   0  0  0  0  0  0  0  0  0  0  0  0
    3.1221   -1.3210    2.6194 H   0  0  0  0  0  0  0  0  0  0  0  0
    2.9408    2.9527    2.6339 H   0  0  0  0  0  0  0  0  0  0  0  0
    0.5189    2.8833    2.7635 H   0  0  0  0  0  0  0  0  0  0  0  0
  1  2  2  0  0  0  0
  1 20  1  0  0  0  0
  1 21  1  0  0  0  0
  2  3  1  0  0  0  0
  2 22  1  0  0  0  0
  3  4  1  0  0  0  0
  3 23  1  0  0  0  0
  3 24  1  0  0  0  0
  4  5  1  0  0  0  0
  5  6  1  0  0  0  0
  5 12  1  0  0  0  0
  5 25  1  0  0  0  0
  6  7  1  0  0  0  0
  6 26  1  0  0  0  0
  6 27  1  0  0  0  0
  7  8  1  0  0  0  0
  7 11  1  0  0  0  0
  8  9  2  0  0  0  0
  8 28  1  0  0  0  0
  9 10  1  0  0  0  0
  9 29  1  0  0  0  0
 10 11  2  0  0  0  0
 11 30  1  0  0  0  0
 12 13  2  0  0  0  0
 12 17  1  0  0  0  0
 13 14  1  0  0  0  0
 13 19  1  0  0  0  0
 14 15  2  0  0  0  0
 14 31  1  0  0  0  0
 15 16  1  0  0  0  0
 15 18  1  0  0  0  0
 16 17  2  0  0  0  0
 16 32  1  0  0  0  0
 17 33  1  0  0  0  0
M  END
$$$$

 OpenBabel05152416213D

 13 13  0  0  0  0  0  0  0  0999 V2000
   -0.6860    1.2005   -0.0002 C   0  0  0  0  0  0  0  0  0  0  0  0
    0.7110    1.2028   -0.0001 C   0  0  0  0  0  0  0  0  0  0  0  0
    1.4132   -0.0133   -0.0003 C   0  0  0  0  0  0  0  0  0  0  0  0
    0.7121   -1.2307    0.0007 C   0  0  0  0  0  0  0  0  0  0  0  0
   -0.7000   -1.2280    0.0006 C   0  0  0  0  0  0  0  0  0  0  0  0
   -1.3934   -0.0047   -0.0004 C   0  0  0  0  0  0  0  0  0  0  0  0
   -3.1523    0.0486   -0.0018 Cl  0  0  0  0  0  0  0  0  0  0  0  0
   -1.6024   -2.7444    0.0014 Cl  0  0  0  0  0  0  0  0  0  0  0  0
    1.4138   -2.3861    0.0018 O   0  0  0  0  0  0  0  0  0  0  0  0
    3.1758   -0.0263   -0.0017 Cl  0  0  0  0  0  0  0  0  0  0  0  0
    1.5577    2.7448    0.0003 Cl  0  0  0  0  0  0  0  0  0  0  0  0
   -1.2247    2.1402   -0.0003 H   0  0  0  0  0  0  0  0  0  0  0  0
    1.0041   -3.2611    0.0042 H   0  0  0  0  0  0  0  0  0  0  0  0
  1  2  2  0  0  0  0
  1  6  1  0  0  0  0
  1 12  1  0  0  0  0
  2  3  1  0  0  0  0
  2 11  1  0  0  0  0
  3  4  2  0  0  0  0
  3 10  1  0  0  0  0
  4  5  1  0  0  0  0
  4  9  1  0  0  0  0
  5  6  2  0  0  0  0
  5  8  1  0  0  0  0
  6  7  1  0  0  0  0
  9 13  1  0  0  0  0
M  END
$$$$

 OpenBabel05152416213D

176182  0  0  1  0  0  0  0  0999 V2000
    9.5822   -2.6340    5.1425 C   0  0  0  0  0  0  0  0  0  0  0  0
    8.4260   -2.2196    6.0306 C   0  0  2  0  0  0  0  0  0  0  0  0
    6.9752   -1.7400    5.0786 C   0  0  1  0  0  0  0  0  0  0  0  0
    7.3030   -0.7888    3.8699 C   0  0  0  0  0  0  0  0  0  0  0  0
    8.3924   -0.9794    3.5905 O   0  0  0  0  0  0  0  0  0  0  0  0
    6.3391   -0.0291    2.9665 N   0  0  0  0  0  0  0  0  0  0  0  0
    6.6309    0.3533    1.5583 C   0  0  1  0  0  0  0  0  0  0  0  0
    6.9910    1.9233    1.7114 C   0  0  0  0  0  0  0  0  0  0  0  0
    6.0174    2.5298    2.1013 O   0  0  0  0  0  0  0  0  0  0  0  0
    8.2921    2.6245    1.7130 N   0  0  0  0  0  0  0  0  0  0  0  0
    9.5800    2.1724    2.0705 C   0  0  0  0  0  0  0  0  0  0  0  0
    9.1879    2.0840    3.5054 C   0  0  0  0  0  0  0  0  0  0  0  0
    8.0030    3.3687    3.7178 C   0  0  0  0  0  0  0  0  0  0  0  0
    8.3412    3.9233    2.4121 C   0  0  1  0  0  0  0  0  0  0  0  0
    9.6792    4.6807    2.9873 C   0  0  0  0  0  0  0  0  0  0  0  0
   10.0042    5.6155    2.2747 O   0  0  0  0  0  0  0  0  0  0  0  0
    9.8788    4.8346    4.4063 N   0  0  0  0  0  0  0  0  0  0  0  0
   10.5846    3.8640    5.3151 C   0  0  0  0  0  0  0  0  0  0  0  0
   10.0979    3.2779    6.6678 C   0  0  0  0  0  0  0  0  0  0  0  0
    9.0481    3.6851    7.1363 O   0  0  0  0  0  0  0  0  0  0  0  0
   10.6520    2.0703    7.1362 N   0  0  0  0  0  0  0  0  0  0  0  0
    9.8917    1.0239    7.8751 C   0  0  2  0  0  0  0  0  0  0  0  0
   10.1716   -0.4894    7.2661 C   0  0  0  0  0  0  0  0  0  0  0  0
   11.0951   -0.5621    6.4730 O   0  0  0  0  0  0  0  0  0  0  0  0
    9.0728   -1.4609    7.1398 O   0  0  0  0  0  0  0  0  0  0  0  0
    8.3858    0.9233    7.8625 C   0  0  0  0  0  0  0  0  0  0  0  0
    7.4346    1.8735    8.4467 C   0  0  0  0  0  0  0  0  0  0  0  0
    7.8629    0.6081    6.4685 C   0  0  0  0  0  0  0  0  0  0  0  0
   12.1221    1.9399    7.2097 C   0  0  0  0  0  0  0  0  0  0  0  0
    9.2478    5.9449    5.0502 C   0  0  0  0  0  0  0  0  0  0  0  0
    7.4789   -0.8766    1.1314 C   0  0  0  0  0  0  0  0  0  0  0  0
    7.6104   -1.8805    0.0451 C   0  0  0  0  0  0  0  0  0  0  0  0
    8.7298   -0.2131    1.1191 C   0  0  0  0  0  0  0  0  0  0  0  0
    5.5833   -1.4970    5.0761 N   0  0  0  0  0  0  0  0  0  0  0  0
    4.5272   -1.3925    5.9088 C   0  0  0  0  0  0  0  0  0  0  0  0
    3.6883   -0.5505    5.6954 O   0  0  0  0  0  0  0  0  0  0  0  0
    4.7365   -1.8377    7.1535 C   0  0  0  0  0  0  0  0  0  0  0  0
    4.3382   -3.0722    7.7477 C   0  0  0  0  0  0  0  0  0  0  0  0
    4.2683   -3.0976    9.0954 C   0  0  0  0  0  0  0  0  0  0  0  0
    4.8365   -1.9690    9.7608 C   0  0  0  0  0  0  0  0  0  0  0  0
    5.3591   -0.8747    9.0868 C   0  0  0  0  0  0  0  0  0  0  0  0
    5.1792   -0.7466    7.7984 C   0  0  0  0  0  0  0  0  0  0  0  0
    4.8442   -1.8194   11.1753 C   0  0  0  0  0  0  0  0  0  0  0  0
    3.6405   -4.1229    9.7003 O   0  0  0  0  0  0  0  0  0  0  0  0
    2.9920   -5.1141    9.0137 C   0  0  0  0  0  0  0  0  0  0  0  0
    2.1537   -6.0152    9.6621 C   0  0  0  0  0  0  0  0  0  0  0  0
    1.2644   -6.8668    8.8817 C   0  0  0  0  0  0  0  0  0  0  0  0
    0.4241   -7.5187    9.4777 O   0  0  0  0  0  0  0  0  0  0  0  0
    1.1429   -6.7482    7.4319 C   0  0  0  0  0  0  0  0  0  0  0  0
    1.9962   -5.8067    6.6986 C   0  0  0  0  0  0  0  0  0  0  0  0
    2.9790   -5.0673    7.5381 C   0  0  0  0  0  0  0  0  0  0  0  0
    3.7590   -4.0984    7.0557 N   0  0  0  0  0  0  0  0  0  0  0  0
    1.6965   -5.5074    5.1553 C   0  0  0  0  0  0  0  0  0  0  0  0
    0.9207   -6.2361    4.5555 O   0  0  0  0  0  0  0  0  0  0  0  0
    2.0789   -4.4465    4.3859 N   0  0  0  0  0  0  0  0  0  0  0  0
    2.7201   -3.2633    4.8480 C   0  0  1  0  0  0  0  0  0  0  0  0
    3.1611   -2.3804    3.6421 C   0  0  2  0  0  0  0  0  0  0  0  0
    2.1888   -2.1561    2.7929 O   0  0  0  0  0  0  0  0  0  0  0  0
    2.1263   -1.0249    2.0645 C   0  0  0  0  0  0  0  0  0  0  0  0
    2.9841   -0.1444    2.0473 O   0  0  0  0  0  0  0  0  0  0  0  0
    1.0467   -1.0207    1.2035 C   0  0  1  0  0  0  0  0  0  0  0  0
    0.0489   -0.1683    1.7970 N   0  0  0  0  0  0  0  0  0  0  0  0
   -1.0438   -0.7155    2.3673 C   0  0  0  0  0  0  0  0  0  0  0  0
   -1.1628   -1.9348    2.5235 O   0  0  0  0  0  0  0  0  0  0  0  0
   -2.0866    0.2294    2.8338 C   0  0  0  0  0  0  0  0  0  0  0  0
   -3.0750   -0.4654    3.5137 N   0  0  0  0  0  0  0  0  0  0  0  0
   -2.7473   -0.5096    4.8229 C   0  0  0  0  0  0  0  0  0  0  0  0
   -3.1488    0.4648    5.4577 O   0  0  0  0  0  0  0  0  0  0  0  0
   -2.0231   -1.8648    5.4427 C   0  0  2  0  0  0  0  0  0  0  0  0
   -2.9555   -3.1801    5.5915 C   0  0  0  0  0  0  0  0  0  0  0  0
   -3.9959   -2.4184    5.9239 C   0  0  0  0  0  0  0  0  0  0  0  0
   -3.1091   -1.4213    7.1692 C   0  0  0  0  0  0  0  0  0  0  0  0
   -1.7798   -1.6807    6.8176 N   0  0  0  0  0  0  0  0  0  0  0  0
   -1.2613   -2.6112    7.5342 C   0  0  0  0  0  0  0  0  0  0  0  0
   -1.9037   -3.6557    7.8378 O   0  0  0  0  0  0  0  0  0  0  0  0
    0.1002   -2.5530    7.6915 C   0  0  2  0  0  0  0  0  0  0  0  0
    0.6781   -3.1055    6.4560 N   0  0  0  0  0  0  0  0  0  0  0  0
    1.8506   -2.6725    6.0748 C   0  0  0  0  0  0  0  0  0  0  0  0
    2.2856   -1.8486    6.8739 O   0  0  0  0  0  0  0  0  0  0  0  0
    0.5808   -3.0975    9.0237 C   0  0  0  0  0  0  0  0  0  0  0  0
    0.1511   -2.3672   10.2398 C   0  0  0  0  0  0  0  0  0  0  0  0
    0.0392   -4.4786    9.1542 C   0  0  0  0  0  0  0  0  0  0  0  0
   -4.1806   -1.1614    2.8491 C   0  0  0  0  0  0  0  0  0  0  0  0
    0.2013    1.2884    1.8047 C   0  0  0  0  0  0  0  0  0  0  0  0
    1.5408   -0.5533   -0.1468 C   0  0  0  0  0  0  0  0  0  0  0  0
    2.6856   -1.4407   -0.6571 C   0  0  0  0  0  0  0  0  0  0  0  0
    0.3547   -0.5471   -1.0570 C   0  0  0  0  0  0  0  0  0  0  0  0
    4.3718   -3.0463    2.9233 C   0  0  0  0  0  0  0  0  0  0  0  0
   -0.0164   -7.3963    6.8295 N   0  0  0  0  0  0  0  0  0  0  0  0
    1.9643   -5.8120   11.1778 C   0  0  0  0  0  0  0  0  0  0  0  0
   10.4613   -2.7828    5.7685 H   0  0  0  0  0  0  0  0  0  0  0  0
   10.0524   -1.8332    4.5496 H   0  0  0  0  0  0  0  0  0  0  0  0
    9.2828   -3.5049    4.5340 H   0  0  0  0  0  0  0  0  0  0  0  0
    8.0969   -3.1854    6.5287 H   0  0  0  0  0  0  0  0  0  0  0  0
    6.7785   -1.8428    6.0893 H   0  0  0  0  0  0  0  0  0  0  0  0
    5.3403    0.1607    3.0500 H   0  0  0  0  0  0  0  0  0  0  0  0
    6.0047    0.3752    0.6070 H   0  0  0  0  0  0  0  0  0  0  0  0
   10.1660    1.9928    1.1355 H   0  0  0  0  0  0  0  0  0  0  0  0
   10.2506    1.2583    2.0239 H   0  0  0  0  0  0  0  0  0  0  0  0
   10.2816    2.1385    3.7270 H   0  0  0  0  0  0  0  0  0  0  0  0
    9.4406    1.2203    4.1553 H   0  0  0  0  0  0  0  0  0  0  0  0
    7.4221    4.3488    3.7375 H   0  0  0  0  0  0  0  0  0  0  0  0
    6.9344    3.5558    4.0528 H   0  0  0  0  0  0  0  0  0  0  0  0
    7.7981    4.6108    1.6988 H   0  0  0  0  0  0  0  0  0  0  0  0
   11.4912    3.4809    4.7974 H   0  0  0  0  0  0  0  0  0  0  0  0
    9.9190    3.0612    5.2771 H   0  0  0  0  0  0  0  0  0  0  0  0
    9.9664    1.4299    8.9163 H   0  0  0  0  0  0  0  0  0  0  0  0
    8.2962    0.0680    8.6335 H   0  0  0  0  0  0  0  0  0  0  0  0
    7.2323    2.6333    7.7051 H   0  0  0  0  0  0  0  0  0  0  0  0
    6.4644    1.4106    8.4699 H   0  0  0  0  0  0  0  0  0  0  0  0
    7.7391    2.1079    9.4757 H   0  0  0  0  0  0  0  0  0  0  0  0
    8.5855    0.1697    5.7886 H   0  0  0  0  0  0  0  0  0  0  0  0
    7.2349   -0.1556    6.8167 H   0  0  0  0  0  0  0  0  0  0  0  0
    7.5438    1.2189    5.6398 H   0  0  0  0  0  0  0  0  0  0  0  0
   12.6600    2.8953    7.4249 H   0  0  0  0  0  0  0  0  0  0  0  0
   12.3794    1.3131    8.1033 H   0  0  0  0  0  0  0  0  0  0  0  0
   12.5744    1.4291    6.3400 H   0  0  0  0  0  0  0  0  0  0  0  0
    9.1100    5.7486    6.1282 H   0  0  0  0  0  0  0  0  0  0  0  0
    9.9068    6.7957    4.9036 H   0  0  0  0  0  0  0  0  0  0  0  0
    8.2164    6.0995    4.6600 H   0  0  0  0  0  0  0  0  0  0  0  0
    7.2049   -1.7222    1.8270 H   0  0  0  0  0  0  0  0  0  0  0  0
    7.5478   -1.3209   -0.8808 H   0  0  0  0  0  0  0  0  0  0  0  0
    8.6274   -2.3543    0.2356 H   0  0  0  0  0  0  0  0  0  0  0  0
    6.9368   -2.7671    0.1302 H   0  0  0  0  0  0  0  0  0  0  0  0
    8.6998    0.2178    2.0499 H   0  0  0  0  0  0  0  0  0  0  0  0
    9.6372   -0.7556    1.2815 H   0  0  0  0  0  0  0  0  0  0  0  0
    8.6886    0.5745    0.3332 H   0  0  0  0  0  0  0  0  0  0  0  0
    5.1777   -1.2083    4.2765 H   0  0  0  0  0  0  0  0  0  0  0  0
    5.8126   -0.0763    9.5909 H   0  0  0  0  0  0  0  0  0  0  0  0
    5.3693    0.2037    7.2396 H   0  0  0  0  0  0  0  0  0  0  0  0
    3.8002   -1.6073   11.4754 H   0  0  0  0  0  0  0  0  0  0  0  0
    5.2724   -2.7600   11.5025 H   0  0  0  0  0  0  0  0  0  0  0  0
    5.4908   -0.9564   11.4627 H   0  0  0  0  0  0  0  0  0  0  0  0
    1.8300   -4.4360    3.3851 H   0  0  0  0  0  0  0  0  0  0  0  0
    3.7048   -3.6816    5.0589 H   0  0  0  0  0  0  0  0  0  0  0  0
    3.3989   -1.3569    3.8453 H   0  0  0  0  0  0  0  0  0  0  0  0
    0.6948   -2.0857    1.1462 H   0  0  0  0  0  0  0  0  0  0  0  0
   -1.5628    0.9571    3.5138 H   0  0  0  0  0  0  0  0  0  0  0  0
   -2.5368    0.8020    2.0241 H   0  0  0  0  0  0  0  0  0  0  0  0
   -1.0550   -2.0481    4.9439 H   0  0  0  0  0  0  0  0  0  0  0  0
   -2.5136   -4.2208    5.6661 H   0  0  0  0  0  0  0  0  0  0  0  0
   -3.7022   -3.4946    6.5320 H   0  0  0  0  0  0  0  0  0  0  0  0
   -3.8736   -2.9018    4.7814 H   0  0  0  0  0  0  0  0  0  0  0  0
   -4.5449   -2.1459    4.9808 H   0  0  0  0  0  0  0  0  0  0  0  0
   -2.4909   -0.7820    7.9196 H   0  0  0  0  0  0  0  0  0  0  0  0
   -3.1032   -0.3571    7.4039 H   0  0  0  0  0  0  0  0  0  0  0  0
    0.3033   -1.4534    7.7783 H   0  0  0  0  0  0  0  0  0  0  0  0
    0.1466   -3.7144    5.8062 H   0  0  0  0  0  0  0  0  0  0  0  0
    1.6762   -2.9973    9.0390 H   0  0  0  0  0  0  0  0  0  0  0  0
   -0.9520   -2.4310   10.2641 H   0  0  0  0  0  0  0  0  0  0  0  0
    0.5952   -2.8930   11.1128 H   0  0  0  0  0  0  0  0  0  0  0  0
    0.5923   -1.3585   10.1915 H   0  0  0  0  0  0  0  0  0  0  0  0
    0.5157   -4.7721    8.2752 H   0  0  0  0  0  0  0  0  0  0  0  0
    0.0625   -4.8701   10.1522 H   0  0  0  0  0  0  0  0  0  0  0  0
   -0.8703   -5.0465    8.9788 H   0  0  0  0  0  0  0  0  0  0  0  0
   -4.1763   -2.2618    2.8404 H   0  0  0  0  0  0  0  0  0  0  0  0
   -5.1723   -0.8690    3.2921 H   0  0  0  0  0  0  0  0  0  0  0  0
   -4.1282   -1.0038    1.7587 H   0  0  0  0  0  0  0  0  0  0  0  0
   -0.6507    1.7137    1.2391 H   0  0  0  0  0  0  0  0  0  0  0  0
    0.2258    1.6980    2.8393 H   0  0  0  0  0  0  0  0  0  0  0  0
    1.1269    1.6476    1.3650 H   0  0  0  0  0  0  0  0  0  0  0  0
    1.9666    0.4682   -0.0811 H   0  0  0  0  0  0  0  0  0  0  0  0
    2.3400   -2.4887   -0.7344 H   0  0  0  0  0  0  0  0  0  0  0  0
    3.0257   -1.0375   -1.6233 H   0  0  0  0  0  0  0  0  0  0  0  0
    3.5728   -1.4243    0.0240 H   0  0  0  0  0  0  0  0  0  0  0  0
   -0.4370    0.1059   -0.6272 H   0  0  0  0  0  0  0  0  0  0  0  0
    0.6813   -0.1428   -2.0225 H   0  0  0  0  0  0  0  0  0  0  0  0
   -0.0278   -1.5848   -1.1307 H   0  0  0  0  0  0  0  0  0  0  0  0
    5.2036   -3.4084    3.5866 H   0  0  0  0  0  0  0  0  0  0  0  0
    4.5332   -3.0629    1.8541 H   0  0  0  0  0  0  0  0  0  0  0  0
    4.8259   -2.1483    2.5551 H   0  0  0  0  0  0  0  0  0  0  0  0
   -0.7068   -7.9155    7.3909 H   0  0  0  0  0  0  0  0  0  0  0  0
   -0.3507   -7.3139    5.8643 H   0  0  0  0  0  0  0  0  0  0  0  0
    2.9183   -5.8676   11.7071 H   0  0  0  0  0  0  0  0  0  0  0  0
    1.6166   -4.7813   11.4648 H   0  0  0  0  0  0  0  0  0  0  0  0
    1.1312   -6.4311   11.5701 H   0  0  0  0  0  0  0  0  0  0  0  0
  1 91  1  0  0  0  0
  1 92  1  0  0  0  0
  1 93  1  0  0  0  0
  1  2  1  0  0  0  0
  2  3  1  0  0  0  0
  2 25  1  0  0  0  0
  2 94  1  1  0  0  0
  3  4  1  0  0  0  0
  3 34  1  0  0  0  0
  3 95  1  1  0  0  0
  4  6  1  0  0  0  0
  4  5  2  0  0  0  0
  6  7  1  0  0  0  0
  6 96  1  0  0  0  0
  7  8  1  0  0  0  0
  7 97  1  6  0  0  0
  7 31  1  0  0  0  0
  8 10  1  0  0  0  0
  8  9  2  0  0  0  0
 10 11  1  0  0  0  0
 10 14  1  0  0  0  0
 11 12  1  0  0  0  0
 11 98  1  0  0  0  0
 11 99  1  0  0  0  0
 12 13  1  0  0  0  0
 12100  1  0  0  0  0
 12101  1  0  0  0  0
 13 14  1  0  0  0  0
 13102  1  0  0  0  0
 13103  1  0  0  0  0
 14 15  1  0  0  0  0
 14104  1  6  0  0  0
 15 17  1  0  0  0  0
 15 16  2  0  0  0  0
 17 18  1  0  0  0  0
 17 30  1  0  0  0  0
 18 19  1  0  0  0  0
 18105  1  0  0  0  0
 18106  1  0  0  0  0
 19 21  1  0  0  0  0
 19 20  2  0  0  0  0
 21 22  1  0  0  0  0
 21 29  1  0  0  0  0
 22 23  1  0  0  0  0
 22107  1  1  0  0  0
 22 26  1  0  0  0  0
 23 25  1  0  0  0  0
 23 24  2  0  0  0  0
 26 27  1  0  0  0  0
 26 28  1  0  0  0  0
 26108  1  0  0  0  0
 27109  1  0  0  0  0
 27110  1  0  0  0  0
 27111  1  0  0  0  0
 28112  1  0  0  0  0
 28113  1  0  0  0  0
 28114  1  0  0  0  0
 29115  1  0  0  0  0
 29116  1  0  0  0  0
 29117  1  0  0  0  0
 30118  1  0  0  0  0
 30119  1  0  0  0  0
 30120  1  0  0  0  0
 31 32  1  0  0  0  0
 31 33  1  0  0  0  0
 31121  1  0  0  0  0
 32122  1  0  0  0  0
 32123  1  0  0  0  0
 32124  1  0  0  0  0
 33125  1  0  0  0  0
 33126  1  0  0  0  0
 33127  1  0  0  0  0
 34 35  1  0  0  0  0
 34128  1  0  0  0  0
 35 36  2  0  0  0  0
 35 37  1  0  0  0  0
 37 38  2  0  0  0  0
 37 42  1  0  0  0  0
 38 39  1  0  0  0  0
 38 52  1  0  0  0  0
 39 40  2  0  0  0  0
 39 44  1  0  0  0  0
 40 41  1  0  0  0  0
 40 43  1  0  0  0  0
 41 42  2  0  0  0  0
 41129  1  0  0  0  0
 42130  1  0  0  0  0
 43131  1  0  0  0  0
 43132  1  0  0  0  0
 43133  1  0  0  0  0
 44 45  1  0  0  0  0
 45 46  2  0  0  0  0
 45 51  1  0  0  0  0
 46 47  1  0  0  0  0
 46 90  1  0  0  0  0
 47 48  2  0  0  0  0
 47 49  1  0  0  0  0
 49 50  2  0  0  0  0
 49 89  1  0  0  0  0
 50 51  1  0  0  0  0
 50 53  1  0  0  0  0
 51 52  2  0  0  0  0
 53 54  2  0  0  0  0
 53 55  1  0  0  0  0
 55134  1  0  0  0  0
 56 57  1  0  0  0  0
 56 78  1  0  0  0  0
 56135  1  1  0  0  0
 56 55  1  0  0  0  0
 57 58  1  0  0  0  0
 57136  1  1  0  0  0
 57 88  1  0  0  0  0
 58 59  1  0  0  0  0
 59 60  2  0  0  0  0
 59 61  1  0  0  0  0
 61 62  1  0  0  0  0
 61 85  1  0  0  0  0
 61137  1  6  0  0  0
 62 63  1  0  0  0  0
 62 84  1  0  0  0  0
 63 64  2  0  0  0  0
 63 65  1  0  0  0  0
 65 66  1  0  0  0  0
 65138  1  0  0  0  0
 65139  1  0  0  0  0
 66 67  1  0  0  0  0
 66 83  1  0  0  0  0
 67 68  2  0  0  0  0
 67 69  1  0  0  0  0
 69 70  1  0  0  0  0
 69 73  1  0  0  0  0
 69140  1  6  0  0  0
 70 71  1  0  0  0  0
 70141  1  0  0  0  0
 70142  1  0  0  0  0
 71 72  1  0  0  0  0
 71143  1  0  0  0  0
 71144  1  0  0  0  0
 72 73  1  0  0  0  0
 72145  1  0  0  0  0
 72146  1  0  0  0  0
 73 74  1  0  0  0  0
 74 75  2  0  0  0  0
 74 76  1  0  0  0  0
 76 77  1  0  0  0  0
 76147  1  1  0  0  0
 76 80  1  0  0  0  0
 77 78  1  0  0  0  0
 77148  1  0  0  0  0
 78 79  2  0  0  0  0
 80 81  1  0  0  0  0
 80 82  1  0  0  0  0
 80149  1  0  0  0  0
 81150  1  0  0  0  0
 81151  1  0  0  0  0
 81152  1  0  0  0  0
 82153  1  0  0  0  0
 82154  1  0  0  0  0
 82155  1  0  0  0  0
 83156  1  0  0  0  0
 83157  1  0  0  0  0
 83158  1  0  0  0  0
 84159  1  0  0  0  0
 84160  1  0  0  0  0
 84161  1  0  0  0  0
 85 86  1  0  0  0  0
 85 87  1  0  0  0  0
 85162  1  0  0  0  0
 86163  1  0  0  0  0
 86164  1  0  0  0  0
 86165  1  0  0  0  0
 87166  1  0  0  0  0
 87167  1  0  0  0  0
 87168  1  0  0  0  0
 88169  1  0  0  0  0
 88170  1  0  0  0  0
 88171  1  0  0  0  0
 89172  1  0  0  0  0
 89173  1  0  0  0  0
 90174  1  0  0  0  0
 90175  1  0  0  0  0
 90176  1  0  0  0  0
M  END
$$$$

 OpenBabel05152416213D

 33 34  0  0  0  0  0  0  0  0999 V2000
    1.1109    0.0376   -0.1395 C   0  0  0  0  0  0  0  0  0  0  0  0
    0.7057   -1.3045    0.4323 C   0  0  0  0  0  0  0  0  0  0  0  0
    1.2596   -1.4650    1.8485 C   0  0  0  0  0  0  0  0  0  0  0  0
    0.6022   -0.5319    2.8911 C   0  0  0  0  0  0  0  0  0  0  0  0
   -0.9545   -0.5325    2.8906 C   0  0  0  0  0  0  0  0  0  0  0  0
   -1.5046   -1.8095    3.3349 N   0  0  0  0  0  0  0  0  0  0  0  0
   -1.3959   -3.0223    2.7612 C   0  0  0  0  0  0  0  0  0  0  0  0
   -1.9864   -3.9637    3.5141 N   0  0  0  0  0  0  0  0  0  0  0  0
   -2.4803   -3.2617    4.5523 C   0  0  0  0  0  0  0  0  0  0  0  0
   -2.2019   -1.9503    4.4535 N   0  0  0  0  0  0  0  0  0  0  0  0
    1.1300   -0.7773    4.3053 C   0  0  0  0  0  0  0  0  0  0  0  0
    1.2832   -2.0638    4.9280 C   0  0  0  0  0  0  0  0  0  0  0  0
    1.6935   -2.1481    6.2478 C   0  0  0  0  0  0  0  0  0  0  0  0
    1.9933   -1.0138    6.9797 C   0  0  0  0  0  0  0  0  0  0  0  0
    1.8957    0.2440    6.3894 C   0  0  0  0  0  0  0  0  0  0  0  0
    1.4642    0.3658    5.0671 C   0  0  0  0  0  0  0  0  0  0  0  0
    2.5092   -1.1996    8.6398 Cl  0  0  0  0  0  0  0  0  0  0  0  0
    1.0682   -3.6671    4.2299 Cl  0  0  0  0  0  0  0  0  0  0  0  0
    0.6889    0.8703    0.4575 H   0  0  0  0  0  0  0  0  0  0  0  0
    0.7359    0.1268   -1.1752 H   0  0  0  0  0  0  0  0  0  0  0  0
    2.2196    0.0966   -0.1259 H   0  0  0  0  0  0  0  0  0  0  0  0
   -0.3977   -1.4309    0.4020 H   0  0  0  0  0  0  0  0  0  0  0  0
    1.1182   -2.1175   -0.1999 H   0  0  0  0  0  0  0  0  0  0  0  0
    1.0981   -2.5050    2.0932 H   0  0  0  0  0  0  0  0  0  0  0  0
    2.3622   -1.3330    1.8589 H   0  0  0  0  0  0  0  0  0  0  0  0
    0.8730    0.5112    2.6065 H   0  0  0  0  0  0  0  0  0  0  0  0
   -1.2994    0.2744    3.5775 H   0  0  0  0  0  0  0  0  0  0  0  0
   -1.3738   -0.2537    1.9004 H   0  0  0  0  0  0  0  0  0  0  0  0
   -0.8677   -3.2496    1.8472 H   0  0  0  0  0  0  0  0  0  0  0  0
   -3.0253   -3.7054    5.3712 H   0  0  0  0  0  0  0  0  0  0  0  0
    1.7846   -3.1239    6.7064 H   0  0  0  0  0  0  0  0  0  0  0  0
    2.1455    1.1275    6.9593 H   0  0  0  0  0  0  0  0  0  0  0  0
    1.3798    1.3632    4.6465 H   0  0  0  0  0  0  0  0  0  0  0  0
  1  2  1  0  0  0  0
  1 19  1  0  0  0  0
  1 20  1  0  0  0  0
  1 21  1  0  0  0  0
  2  3  1  0  0  0  0
  2 22  1  0  0  0  0
  2 23  1  0  0  0  0
  3  4  1  0  0  0  0
  3 24  1  0  0  0  0
  3 25  1  0  0  0  0
  4  5  1  0  0  0  0
  4 11  1  0  0  0  0
  4 26  1  0  0  0  0
  5  6  1  0  0  0  0
  5 27  1  0  0  0  0
  5 28  1  0  0  0  0
  6  7  1  0  0  0  0
  6 10  1  0  0  0  0
  7  8  2  0  0  0  0
  7 29  1  0  0  0  0
  8  9  1  0  0  0  0
  9 10  2  0  0  0  0
  9 30  1  0  0  0  0
 11 12  2  0  0  0  0
 11 16  1  0  0  0  0
 12 13  1  0  0  0  0
 12 18  1  0  0  0  0
 13 14  2  0  0  0  0
 13 31  1  0  0  0  0
 14 15  1  0  0  0  0
 14 17  1  0  0  0  0
 15 16  2  0  0  0  0
 15 32  1  0  0  0  0
 16 33  1  0  0  0  0
M  END
$$$$

 OpenBabel05152416213D

 57 59  0  0  0  0  0  0  0  0999 V2000
    0.9111   -0.0211   -0.1999 C   0  0  0  0  0  0  0  0  0  0  0  0
    0.4867   -0.3253    1.2256 C   0  0  0  0  0  0  0  0  0  0  0  0
    0.9511    0.6771    2.3053 C   0  0  0  0  0  0  0  0  0  0  0  0
    0.0354    1.3650    3.0985 C   0  0  0  0  0  0  0  0  0  0  0  0
   -1.4381    1.1044    3.0884 C   0  0  0  0  0  0  0  0  0  0  0  0
   -2.3380    2.1868    3.1931 C   0  0  0  0  0  0  0  0  0  0  0  0
   -3.7110    1.9665    3.2381 C   0  0  0  0  0  0  0  0  0  0  0  0
   -4.2059    0.6643    3.1607 C   0  0  0  0  0  0  0  0  0  0  0  0
   -3.3293   -0.4143    3.0509 C   0  0  0  0  0  0  0  0  0  0  0  0
   -1.9565   -0.2007    3.0358 C   0  0  0  0  0  0  0  0  0  0  0  0
    0.3828    2.5178    4.0098 C   0  0  0  0  0  0  0  0  0  0  0  0
   -0.1833    2.6169    5.3004 C   0  0  0  0  0  0  0  0  0  0  0  0
    0.1298    3.7005    6.1446 C   0  0  0  0  0  0  0  0  0  0  0  0
    1.0163    4.6953    5.6916 C   0  0  0  0  0  0  0  0  0  0  0  0
    1.4823    4.6564    4.3704 C   0  0  0  0  0  0  0  0  0  0  0  0
    1.1878    3.5611    3.5432 C   0  0  0  0  0  0  0  0  0  0  0  0
    1.5703    5.5528    6.6210 O   0  0  0  0  0  0  0  0  0  0  0  0
    2.8229    6.1797    6.5193 C   0  0  0  0  0  0  0  0  0  0  0  0
    4.1192    5.2743    6.4713 C   0  0  0  0  0  0  0  0  0  0  0  0
    4.0472    4.2421    5.4353 N   0  0  0  0  0  0  0  0  0  0  0  0
    5.3459    3.8070    4.8958 C   0  0  0  0  0  0  0  0  0  0  0  0
    3.3567    3.0582    5.9602 C   0  0  0  0  0  0  0  0  0  0  0  0
    2.4390    0.8322    2.4921 C   0  0  0  0  0  0  0  0  0  0  0  0
    2.9967    0.6722    3.7719 C   0  0  0  0  0  0  0  0  0  0  0  0
    4.3754    0.8449    3.9790 C   0  0  0  0  0  0  0  0  0  0  0  0
    5.2152    1.1452    2.9084 C   0  0  0  0  0  0  0  0  0  0  0  0
    4.6847    1.2696    1.6327 C   0  0  0  0  0  0  0  0  0  0  0  0
    3.3163    1.1189    1.4289 C   0  0  0  0  0  0  0  0  0  0  0  0
    0.6727    1.0412   -0.4327 H   0  0  0  0  0  0  0  0  0  0  0  0
    0.3551   -0.6777   -0.8977 H   0  0  0  0  0  0  0  0  0  0  0  0
    1.9686   -0.2788   -0.3744 H   0  0  0  0  0  0  0  0  0  0  0  0
   -0.6000   -0.3164    1.1057 H   0  0  0  0  0  0  0  0  0  0  0  0
    0.8107   -1.3544    1.4959 H   0  0  0  0  0  0  0  0  0  0  0  0
   -1.9809    3.2120    3.2407 H   0  0  0  0  0  0  0  0  0  0  0  0
   -4.3850    2.8063    3.3342 H   0  0  0  0  0  0  0  0  0  0  0  0
   -5.2697    0.4899    3.1950 H   0  0  0  0  0  0  0  0  0  0  0  0
   -3.7025   -1.4258    2.9911 H   0  0  0  0  0  0  0  0  0  0  0  0
   -1.3019   -1.0597    2.9972 H   0  0  0  0  0  0  0  0  0  0  0  0
   -0.8199    1.8249    5.6856 H   0  0  0  0  0  0  0  0  0  0  0  0
   -0.2390    3.6932    7.1635 H   0  0  0  0  0  0  0  0  0  0  0  0
    2.1624    5.4018    3.9944 H   0  0  0  0  0  0  0  0  0  0  0  0
    1.6128    3.5219    2.5550 H   0  0  0  0  0  0  0  0  0  0  0  0
    2.8127    6.8432    5.6347 H   0  0  0  0  0  0  0  0  0  0  0  0
    2.9626    6.8190    7.4172 H   0  0  0  0  0  0  0  0  0  0  0  0
    4.9655    5.9624    6.2462 H   0  0  0  0  0  0  0  0  0  0  0  0
    4.3624    4.7916    7.4431 H   0  0  0  0  0  0  0  0  0  0  0  0
    5.8261    3.0362    5.5447 H   0  0  0  0  0  0  0  0  0  0  0  0
    5.1589    3.3975    3.8903 H   0  0  0  0  0  0  0  0  0  0  0  0
    6.0583    4.6335    4.7212 H   0  0  0  0  0  0  0  0  0  0  0  0
    3.9466    2.4338    6.6427 H   0  0  0  0  0  0  0  0  0  0  0  0
    2.5454    3.2826    6.6324 H   0  0  0  0  0  0  0  0  0  0  0  0
    2.9103    2.5656    5.1154 H   0  0  0  0  0  0  0  0  0  0  0  0
    2.3649    0.4515    4.6261 H   0  0  0  0  0  0  0  0  0  0  0  0
    4.7869    0.7880    4.9799 H   0  0  0  0  0  0  0  0  0  0  0  0
    6.2716    1.3214    3.0688 H   0  0  0  0  0  0  0  0  0  0  0  0
    5.3248    1.5131    0.7969 H   0  0  0  0  0  0  0  0  0  0  0  0
    2.9794    1.2873    0.4318 H   0  0  0  0  0  0  0  0  0  0  0  0
  1  2  1  0  0  0  0
  1 29  1  0  0  0  0
  1 30  1  0  0  0  0
  1 31  1  0  0  0  0
  2  3  1  0  0  0  0
  2 32  1  0  0  0  0
  2 33  1  0  0  0  0
  3  4  2  0  0  0  0
  3 23  1  0  0  0  0
  4  5  1  0  0  0  0
  4 11  1  0  0  0  0
  5  6  2  0  0  0  0
  5 10  1  0  0  0  0
  6  7  1  0  0  0  0
  6 34  1  0  0  0  0
  7  8  2  0  0  0  0
  7 35  1  0  0  0  0
  8  9  1  0  0  0  0
  8 36  1  0  0  0  0
  9 10  2  0  0  0  0
  9 37  1  0  0  0  0
 10 38  1  0  0  0  0
 11 12  2  0  0  0  0
 11 16  1  0  0  0  0
 12 13  1  0  0  0  0
 12 39  1  0  0  0  0
 13 14  2  0  0  0  0
 13 40  1  0  0  0  0
 14 15  1  0  0  0  0
 14 17  1  0  0  0  0
 15 16  2  0  0  0  0
 15 41  1  0  0  0  0
 16 42  1  0  0  0  0
 17 18  1  0  0  0  0
 18 19  1  0  0  0  0
 18 43  1  0  0  0  0
 18 44  1  0  0  0  0
 19 20  1  0  0  0  0
 19 45  1  0  0  0  0
 19 46  1  0  0  0  0
 20 21  1  0  0  0  0
 20 22  1  0  0  0  0
 21 47  1  0  0  0  0
 21 48  1  0  0  0  0
 21 49  1  0  0  0  0
 22 50  1  0  0  0  0
 22 51  1  0  0  0  0
 22 52  1  0  0  0  0
 23 24  2  0  0  0  0
 23 28  1  0  0  0  0
 24 25  1  0  0  0  0
 24 53  1  0  0  0  0
 25 26  2  0  0  0  0
 25 54  1  0  0  0  0
 26 27  1  0  0  0  0
 26 55  1  0  0  0  0
 27 28  2  0  0  0  0
 27 56  1  0  0  0  0
 28 57  1  0  0  0  0
M  END
$$$$

 OpenBabel05152416213D

 79 81  0  0  1  0  0  0  0  0999 V2000
    5.9470   -0.6296    9.1447 C   0  0  0  0  0  0  0  0  0  0  0  0
    5.0842   -0.9477    7.9324 C   0  0  0  0  0  0  0  0  0  0  0  0
    3.5872   -0.6698    8.1552 C   0  0  1  0  0  0  0  0  0  0  0  0
    3.2650    0.7745    8.6570 C   0  0  0  0  0  0  0  0  0  0  0  0
    3.2670    1.8229    7.6120 N   0  0  0  0  0  0  0  0  0  0  0  0
    2.8350    3.1409    8.1262 C   0  0  0  0  0  0  0  0  0  0  0  0
    1.3413    3.3645    8.0027 C   0  0  0  0  0  0  0  0  0  0  0  0
    0.8125    3.0214    6.6308 C   0  0  0  0  0  0  0  0  0  0  0  0
   -0.3896    3.5956    6.2105 C   0  0  0  0  0  0  0  0  0  0  0  0
   -1.0162    3.2213    5.0128 C   0  0  0  0  0  0  0  0  0  0  0  0
   -0.3483    2.3134    4.1692 C   0  0  0  0  0  0  0  0  0  0  0  0
    0.8912    1.7975    4.5451 C   0  0  0  0  0  0  0  0  0  0  0  0
    1.4739    2.0991    5.8073 C   0  0  0  0  0  0  0  0  0  0  0  0
    2.8315    1.5216    6.2119 C   0  0  2  0  0  0  0  0  0  0  0  0
    3.1148    0.0478    5.7882 C   0  0  0  0  0  0  0  0  0  0  0  0
    2.8060   -1.0266    6.8623 C   0  0  2  0  0  0  0  0  0  0  0  0
    1.3306   -1.1456    7.1796 C   0  0  0  0  0  0  0  0  0  0  0  0
    0.4119   -1.4014    5.9543 C   0  0  2  0  0  0  0  0  0  0  0  0
   -1.0106   -1.0669    6.3436 C   0  0  0  0  0  0  0  0  0  0  0  0
   -1.2581    0.1102    7.0598 C   0  0  0  0  0  0  0  0  0  0  0  0
   -2.5010    0.4166    7.5650 C   0  0  0  0  0  0  0  0  0  0  0  0
   -3.5907   -0.4165    7.2588 C   0  0  0  0  0  0  0  0  0  0  0  0
   -3.3696   -1.5801    6.4864 C   0  0  0  0  0  0  0  0  0  0  0  0
   -2.0795   -1.9157    6.0330 C   0  0  0  0  0  0  0  0  0  0  0  0
   -1.8426   -3.1599    5.2087 C   0  0  0  0  0  0  0  0  0  0  0  0
   -0.4706   -3.1303    4.5197 C   0  0  0  0  0  0  0  0  0  0  0  0
    0.5599   -2.8020    5.5016 N   0  0  0  0  0  0  0  0  0  0  0  0
   -4.8501   -0.1245    7.6843 O   0  0  0  0  0  0  0  0  0  0  0  0
   -5.1983    0.9974    8.4229 C   0  0  0  0  0  0  0  0  0  0  0  0
   -2.6713    1.4929    8.3778 O   0  0  0  0  0  0  0  0  0  0  0  0
   -1.6968    2.2534    8.9615 C   0  0  0  0  0  0  0  0  0  0  0  0
   -0.8724    1.9080    2.9696 O   0  0  0  0  0  0  0  0  0  0  0  0
   -2.0667    2.3154    2.4264 C   0  0  0  0  0  0  0  0  0  0  0  0
   -2.2323    3.7096    4.6922 O   0  0  0  0  0  0  0  0  0  0  0  0
   -3.0266    4.5120    5.4821 C   0  0  0  0  0  0  0  0  0  0  0  0
    1.0409    1.4002    0.7820 Cl  0  0  0  0  0  0  0  0  0  0  0  0
    1.0919   -1.3649   -0.9419 Cl  0  0  0  0  0  0  0  0  0  0  0  0
    6.0190    0.4631    9.3147 H   0  0  0  0  0  0  0  0  0  0  0  0
    6.9772   -0.9740    8.9430 H   0  0  0  0  0  0  0  0  0  0  0  0
    5.5364   -1.1273   10.0484 H   0  0  0  0  0  0  0  0  0  0  0  0
    5.5000   -0.3884    7.0807 H   0  0  0  0  0  0  0  0  0  0  0  0
    5.1697   -2.0383    7.7195 H   0  0  0  0  0  0  0  0  0  0  0  0
    3.2876   -1.3683    8.9725 H   0  0  0  0  0  0  0  0  0  0  0  0
    2.3216    0.7748    9.2457 H   0  0  0  0  0  0  0  0  0  0  0  0
    4.0136    1.0851    9.4060 H   0  0  0  0  0  0  0  0  0  0  0  0
    3.0886    3.2623    9.2079 H   0  0  0  0  0  0  0  0  0  0  0  0
    3.3497    3.9258    7.5515 H   0  0  0  0  0  0  0  0  0  0  0  0
    0.8653    2.7082    8.7522 H   0  0  0  0  0  0  0  0  0  0  0  0
    1.0800    4.4131    8.2798 H   0  0  0  0  0  0  0  0  0  0  0  0
   -0.8831    4.3088    6.8545 H   0  0  0  0  0  0  0  0  0  0  0  0
    1.3814    1.1338    3.8515 H   0  0  0  0  0  0  0  0  0  0  0  0
    3.4995    2.1180    5.5583 H   0  0  0  0  0  0  0  0  0  0  0  0
    4.1837   -0.0091    5.5394 H   0  0  0  0  0  0  0  0  0  0  0  0
    2.6724   -0.2129    4.8152 H   0  0  0  0  0  0  0  0  0  0  0  0
    3.1243   -2.0211    6.4828 H   0  0  0  0  0  0  0  0  0  0  0  0
    1.1315   -1.9104    7.9619 H   0  0  0  0  0  0  0  0  0  0  0  0
    1.1408   -0.1901    7.6519 H   0  0  0  0  0  0  0  0  0  0  0  0
    0.6395   -0.7153    5.1270 H   0  0  0  0  0  0  0  0  0  0  0  0
   -0.4833    0.8025    7.2738 H   0  0  0  0  0  0  0  0  0  0  0  0
   -4.2003   -2.2254    6.2397 H   0  0  0  0  0  0  0  0  0  0  0  0
   -2.6055   -3.2421    4.4062 H   0  0  0  0  0  0  0  0  0  0  0  0
   -1.9218   -4.0407    5.8807 H   0  0  0  0  0  0  0  0  0  0  0  0
   -0.4607   -2.3672    3.7067 H   0  0  0  0  0  0  0  0  0  0  0  0
   -0.2681   -4.1191    4.0506 H   0  0  0  0  0  0  0  0  0  0  0  0
    1.4998   -2.9271    5.0567 H   0  0  0  0  0  0  0  0  0  0  0  0
   -4.6826    0.9738    9.4115 H   0  0  0  0  0  0  0  0  0  0  0  0
   -4.9212    1.9254    7.8649 H   0  0  0  0  0  0  0  0  0  0  0  0
   -6.2804    1.0279    8.6105 H   0  0  0  0  0  0  0  0  0  0  0  0
   -1.0039    1.6397    9.5754 H   0  0  0  0  0  0  0  0  0  0  0  0
   -1.1582    2.6853    8.1762 H   0  0  0  0  0  0  0  0  0  0  0  0
   -2.1179    3.1145    9.5105 H   0  0  0  0  0  0  0  0  0  0  0  0
   -2.9083    1.9986    3.0819 H   0  0  0  0  0  0  0  0  0  0  0  0
   -2.0569    3.4202    2.2987 H   0  0  0  0  0  0  0  0  0  0  0  0
   -2.2097    1.8589    1.4286 H   0  0  0  0  0  0  0  0  0  0  0  0
   -3.2756    3.9831    6.4293 H   0  0  0  0  0  0  0  0  0  0  0  0
   -2.4930    5.4605    5.6940 H   0  0  0  0  0  0  0  0  0  0  0  0
   -3.9645    4.7411    4.9411 H   0  0  0  0  0  0  0  0  0  0  0  0
    2.3390    0.9970    0.5961 H   0  0  0  0  0  0  0  0  0  0  0  0
    2.3764   -0.9458   -0.6734 H   0  0  0  0  0  0  0  0  0  0  0  0
  1  2  1  0  0  0  0
  1 38  1  0  0  0  0
  1 39  1  0  0  0  0
  1 40  1  0  0  0  0
  2  3  1  0  0  0  0
  2 41  1  0  0  0  0
  2 42  1  0  0  0  0
  3  4  1  0  0  0  0
  3 16  1  0  0  0  0
  3 43  1  1  0  0  0
  4  5  1  0  0  0  0
  4 44  1  0  0  0  0
  4 45  1  0  0  0  0
  5  6  1  0  0  0  0
  5 14  1  0  0  0  0
  6  7  1  0  0  0  0
  6 46  1  0  0  0  0
  6 47  1  0  0  0  0
  7  8  1  0  0  0  0
  7 48  1  0  0  0  0
  7 49  1  0  0  0  0
  8  9  2  0  0  0  0
  8 13  1  0  0  0  0
  9 10  1  0  0  0  0
  9 50  1  0  0  0  0
 10 11  2  0  0  0  0
 10 34  1  0  0  0  0
 11 12  1  0  0  0  0
 11 32  1  0  0  0  0
 12 13  2  0  0  0  0
 12 51  1  0  0  0  0
 13 14  1  0  0  0  0
 14 15  1  0  0  0  0
 14 52  1  6  0  0  0
 15 16  1  0  0  0  0
 15 53  1  0  0  0  0
 15 54  1  0  0  0  0
 16 55  1  6  0  0  0
 16 17  1  0  0  0  0
 17 56  1  0  0  0  0
 17 57  1  0  0  0  0
 18 19  1  0  0  0  0
 18 27  1  0  0  0  0
 18 58  1  6  0  0  0
 18 17  1  0  0  0  0
 19 20  2  0  0  0  0
 19 24  1  0  0  0  0
 20 21  1  0  0  0  0
 20 59  1  0  0  0  0
 21 22  2  0  0  0  0
 21 30  1  0  0  0  0
 22 23  1  0  0  0  0
 22 28  1  0  0  0  0
 23 24  2  0  0  0  0
 23 60  1  0  0  0  0
 24 25  1  0  0  0  0
 25 26  1  0  0  0  0
 25 61  1  0  0  0  0
 25 62  1  0  0  0  0
 26 27  1  0  0  0  0
 26 63  1  0  0  0  0
 26 64  1  0  0  0  0
 27 65  1  0  0  0  0
 28 29  1  0  0  0  0
 29 66  1  0  0  0  0
 29 67  1  0  0  0  0
 29 68  1  0  0  0  0
 30 31  1  0  0  0  0
 31 69  1  0  0  0  0
 31 70  1  0  0  0  0
 31 71  1  0  0  0  0
 32 33  1  0  0  0  0
 33 72  1  0  0  0  0
 33 73  1  0  0  0  0
 33 74  1  0  0  0  0
 34 35  1  0  0  0  0
 35 75  1  0  0  0  0
 35 76  1  0  0  0  0
 35 77  1  0  0  0  0
 36 78  1  0  0  0  0
 37 79  1  0  0  0  0
M  END
$$$$

 OpenBabel05152416213D

 25 22  0  0  0  0  0  0  0  0999 V2000
    0.3450   -0.5852    1.0984 C   0  0  0  0  0  0  0  0  0  0  0  0
    0.3235   -0.0225    2.2413 N   0  0  0  0  0  0  0  0  0  0  0  0
   -0.4952    1.2001    2.2763 C   0  0  0  0  0  0  0  0  0  0  0  0
    0.8617   -0.8760    3.3195 C   0  0  0  0  0  0  0  0  0  0  0  0
    1.7292   -2.0463    3.0557 S   0  0  0  0  0  0  0  0  0  0  0  0
    0.1523   -0.7592    4.8685 S   0  5  0  0  0  0  0  0  0  0  0  0
    1.2911    0.7006   -0.9423 C   0  0  0  0  0  0  0  0  0  0  0  0
    0.6092   -0.7567   -1.4840 N   0  0  0  0  0  0  0  0  0  0  0  0
   -0.3331   -1.9586   -0.9311 C   0  0  0  0  0  0  0  0  0  0  0  0
    0.9124   -1.2414   -2.8006 C   0  0  0  0  0  0  0  0  0  0  0  0
    1.5605   -0.4446   -3.8098 S   0  0  0  0  0  0  0  0  0  0  0  0
    0.3485   -2.8774   -3.4319 S   0  5  0  0  0  0  0  0  0  0  0  0
    3.2899   -0.1236   -2.0026 Zn  0  2  0  0  0  0  0  0  0  0  0  0
   -0.4867   -0.1386    0.3989 H   0  0  0  0  0  0  0  0  0  0  0  0
    0.4531   -1.6212    1.1301 H   0  0  0  0  0  0  0  0  0  0  0  0
    1.3921   -0.7878    0.7685 H   0  0  0  0  0  0  0  0  0  0  0  0
   -1.5801    0.9594    2.3767 H   0  0  0  0  0  0  0  0  0  0  0  0
    0.0620    1.9783    2.7715 H   0  0  0  0  0  0  0  0  0  0  0  0
   -0.5942    1.6967    1.2421 H   0  0  0  0  0  0  0  0  0  0  0  0
    1.5170    1.0740    0.1400 H   0  0  0  0  0  0  0  0  0  0  0  0
    0.6968    1.6444   -0.7306 H   0  0  0  0  0  0  0  0  0  0  0  0
    2.3287    0.6772   -0.4397 H   0  0  0  0  0  0  0  0  0  0  0  0
   -1.4277   -1.9329   -1.1332 H   0  0  0  0  0  0  0  0  0  0  0  0
    0.2398   -2.8987   -0.6377 H   0  0  0  0  0  0  0  0  0  0  0  0
   -0.9281   -2.1882    0.0144 H   0  0  0  0  0  0  0  0  0  0  0  0
  1  2  1  0  0  0  0
  1 14  1  0  0  0  0
  1 15  1  0  0  0  0
  1 16  1  0  0  0  0
  2  3  1  0  0  0  0
  2  4  1  0  0  0  0
  3 17  1  0  0  0  0
  3 18  1  0  0  0  0
  3 19  1  0  0  0  0
  4  5  2  0  0  0  0
  4  6  1  0  0  0  0
  7  8  1  0  0  0  0
  7 20  1  0  0  0  0
  7 21  1  0  0  0  0
  7 22  1  0  0  0  0
  8  9  1  0  0  0  0
  8 10  1  0  0  0  0
  9 23  1  0  0  0  0
  9 24  1  0  0  0  0
  9 25  1  0  0  0  0
 10 11  2  0  0  0  0
 10 12  1  0  0  0  0
M  CHG  3   6  -1  12  -1  13   2
M  END
$$$$

 OpenBabel05152416213D

 46 48  0  0  0  0  0  0  0  0999 V2000
    2.5292   -0.1225   -0.1360 C   0  0  0  0  0  0  0  0  0  0  0  0
    1.0235   -0.1155    0.2648 C   0  0  0  0  0  0  0  0  0  0  0  0
    0.3766   -1.4603   -0.2013 C   0  0  0  0  0  0  0  0  0  0  0  0
   -1.1400   -1.5447    0.0615 C   0  0  0  0  0  0  0  0  0  0  0  0
   -1.8796   -0.4786   -0.7740 C   0  0  0  0  0  0  0  0  0  0  0  0
   -1.2169    0.8407   -0.5427 C   0  0  0  0  0  0  0  0  0  0  0  0
    0.3605    0.9418   -0.6406 C   0  0  0  0  0  0  0  0  0  0  0  0
    1.0432    0.1621    1.8756 C   0  0  0  0  0  0  0  0  0  0  0  0
   -0.0821    0.5150    2.6560 O   0  0  0  0  0  0  0  0  0  0  0  0
   -0.9298    1.5944    2.5614 C   0  0  0  0  0  0  0  0  0  0  0  0
   -2.0567    1.6927    3.3635 C   0  0  0  0  0  0  0  0  0  0  0  0
   -3.0745    2.5961    3.0144 C   0  0  0  0  0  0  0  0  0  0  0  0
   -3.0471    3.2685    1.7595 C   0  0  0  0  0  0  0  0  0  0  0  0
   -1.8796    3.2192    1.0459 C   0  0  0  0  0  0  0  0  0  0  0  0
   -0.7815    2.5495    1.5653 C   0  0  0  0  0  0  0  0  0  0  0  0
   -4.0804    4.2143    1.1893 C   0  0  0  0  0  0  0  0  0  0  0  0
   -5.5575    3.8248    1.2713 C   0  0  0  0  0  0  0  0  0  0  0  0
   -5.8853    2.6013    0.4864 C   0  0  0  0  0  0  0  0  0  0  0  0
   -5.7692    2.5391   -0.7409 O   0  0  0  0  0  0  0  0  0  0  0  0
   -6.2941    1.5307    1.1883 N   0  0  0  0  0  0  0  0  0  0  0  0
   -6.3581    1.7927    2.5165 C   0  0  0  0  0  0  0  0  0  0  0  0
   -6.6132    0.9101    3.3210 O   0  0  0  0  0  0  0  0  0  0  0  0
   -6.0981    3.4929    2.9895 S   0  0  0  0  0  0  0  0  0  0  0  0
    3.0695   -0.9795    0.3145 H   0  0  0  0  0  0  0  0  0  0  0  0
    2.6591   -0.1596   -1.2389 H   0  0  0  0  0  0  0  0  0  0  0  0
    3.0372    0.8123    0.2067 H   0  0  0  0  0  0  0  0  0  0  0  0
    0.5043   -1.5314   -1.3107 H   0  0  0  0  0  0  0  0  0  0  0  0
    0.8938   -2.3110    0.2698 H   0  0  0  0  0  0  0  0  0  0  0  0
   -1.2979   -1.4174    1.1600 H   0  0  0  0  0  0  0  0  0  0  0  0
   -1.5641   -2.5244   -0.2280 H   0  0  0  0  0  0  0  0  0  0  0  0
   -2.9637   -0.4178   -0.4478 H   0  0  0  0  0  0  0  0  0  0  0  0
   -1.8733   -0.6564   -1.8555 H   0  0  0  0  0  0  0  0  0  0  0  0
   -1.5801    0.8199    0.4606 H   0  0  0  0  0  0  0  0  0  0  0  0
   -1.6901    1.6345   -1.1442 H   0  0  0  0  0  0  0  0  0  0  0  0
    0.9298    1.8831   -0.4763 H   0  0  0  0  0  0  0  0  0  0  0  0
    0.6124    0.8601   -1.7114 H   0  0  0  0  0  0  0  0  0  0  0  0
    1.4594   -0.7751    2.3194 H   0  0  0  0  0  0  0  0  0  0  0  0
    1.7840    0.9508    2.1037 H   0  0  0  0  0  0  0  0  0  0  0  0
   -2.1454    1.0667    4.2402 H   0  0  0  0  0  0  0  0  0  0  0  0
   -3.8727    2.6763    3.7068 H   0  0  0  0  0  0  0  0  0  0  0  0
   -1.8146    3.6904    0.0635 H   0  0  0  0  0  0  0  0  0  0  0  0
    0.0911    2.5965    1.0525 H   0  0  0  0  0  0  0  0  0  0  0  0
   -3.8986    5.1512    1.7357 H   0  0  0  0  0  0  0  0  0  0  0  0
   -3.8687    4.4596    0.1118 H   0  0  0  0  0  0  0  0  0  0  0  0
   -6.1555    4.6751    0.8931 H   0  0  0  0  0  0  0  0  0  0  0  0
   -6.5087    0.6231    0.7818 H   0  0  0  0  0  0  0  0  0  0  0  0
  1  2  1  0  0  0  0
  1 24  1  0  0  0  0
  1 25  1  0  0  0  0
  1 26  1  0  0  0  0
  2  3  1  0  0  0  0
  2  7  1  0  0  0  0
  2  8  1  0  0  0  0
  3  4  1  0  0  0  0
  3 27  1  0  0  0  0
  3 28  1  0  0  0  0
  4  5  1  0  0  0  0
  4 29  1  0  0  0  0
  4 30  1  0  0  0  0
  5  6  1  0  0  0  0
  5 31  1  0  0  0  0
  5 32  1  0  0  0  0
  6  7  1  0  0  0  0
  6 33  1  0  0  0  0
  6 34  1  0  0  0  0
  7 35  1  0  0  0  0
  7 36  1  0  0  0  0
  8  9  1  0  0  0  0
  8 37  1  0  0  0  0
  8 38  1  0  0  0  0
  9 10  1  0  0  0  0
 10 11  2  0  0  0  0
 10 15  1  0  0  0  0
 11 12  1  0  0  0  0
 11 39  1  0  0  0  0
 12 13  2  0  0  0  0
 12 40  1  0  0  0  0
 13 14  1  0  0  0  0
 13 16  1  0  0  0  0
 14 15  2  0  0  0  0
 14 41  1  0  0  0  0
 15 42  1  0  0  0  0
 16 17  1  0  0  0  0
 16 43  1  0  0  0  0
 16 44  1  0  0  0  0
 17 18  1  0  0  0  0
 17 23  1  0  0  0  0
 17 45  1  0  0  0  0
 18 19  2  0  0  0  0
 18 20  1  0  0  0  0
 20 21  1  0  0  0  0
 20 46  1  0  0  0  0
 21 22  2  0  0  0  0
 21 23  1  0  0  0  0
M  END
$$$$

 OpenBabel05152416213D

 27 28  0  0  0  0  0  0  0  0999 V2000
    1.3828   -0.1988    0.0130 C   0  0  0  0  0  0  0  0  0  0  0  0
    0.8631    1.0945   -0.0283 C   0  0  0  0  0  0  0  0  0  0  0  0
   -0.5238    1.2774    0.0471 C   0  0  0  0  0  0  0  0  0  0  0  0
   -1.3605    0.1676   -0.0295 C   0  0  0  0  0  0  0  0  0  0  0  0
   -0.8400   -1.1130   -0.0198 C   0  0  0  0  0  0  0  0  0  0  0  0
    0.5480   -1.3167    0.0098 C   0  0  0  0  0  0  0  0  0  0  0  0
    1.0979   -2.6371   -0.0205 N   0  0  0  0  0  0  0  0  0  0  0  0
    2.3477   -2.8661   -0.0444 C   0  0  0  0  0  0  0  0  0  0  0  0
    3.7520   -3.0525   -0.0792 S   0  0  0  0  0  0  0  0  0  0  0  0
   -1.0667    2.5056    0.1793 O   0  0  0  0  0  0  0  0  0  0  0  0
   -2.3791    2.7187    0.4843 C   0  0  0  0  0  0  0  0  0  0  0  0
   -3.0860    3.6237   -0.2817 C   0  0  0  0  0  0  0  0  0  0  0  0
   -4.4082    3.9349    0.0423 C   0  0  0  0  0  0  0  0  0  0  0  0
   -5.1093    3.2258    1.0218 C   0  0  0  0  0  0  0  0  0  0  0  0
   -4.4055    2.2847    1.7752 C   0  0  0  0  0  0  0  0  0  0  0  0
   -3.0521    2.0422    1.5242 C   0  0  0  0  0  0  0  0  0  0  0  0
   -6.5146    3.4311    1.2082 N   0  3  0  0  0  0  0  0  0  0  0  0
   -7.1157    4.1781    0.4943 O   0  0  0  0  0  0  0  0  0  0  0  0
   -7.1915    2.6865    2.0576 O   0  5  0  0  0  0  0  0  0  0  0  0
    2.4400   -0.3608    0.0609 H   0  0  0  0  0  0  0  0  0  0  0  0
    1.5470    1.9291   -0.1116 H   0  0  0  0  0  0  0  0  0  0  0  0
   -2.4298    0.3171   -0.1029 H   0  0  0  0  0  0  0  0  0  0  0  0
   -1.5367   -1.9264   -0.0177 H   0  0  0  0  0  0  0  0  0  0  0  0
   -2.6082    4.0711   -1.1437 H   0  0  0  0  0  0  0  0  0  0  0  0
   -4.9052    4.7270   -0.4695 H   0  0  0  0  0  0  0  0  0  0  0  0
   -4.8969    1.7513    2.5640 H   0  0  0  0  0  0  0  0  0  0  0  0
   -2.5370    1.2973    2.1042 H   0  0  0  0  0  0  0  0  0  0  0  0
  1  2  2  0  0  0  0
  1  6  1  0  0  0  0
  1 20  1  0  0  0  0
  2  3  1  0  0  0  0
  2 21  1  0  0  0  0
  3  4  2  0  0  0  0
  3 10  1  0  0  0  0
  4  5  1  0  0  0  0
  4 22  1  0  0  0  0
  5  6  2  0  0  0  0
  5 23  1  0  0  0  0
  6  7  1  0  0  0  0
  7  8  2  0  0  0  0
  8  9  2  0  0  0  0
 10 11  1  0  0  0  0
 11 12  2  0  0  0  0
 11 16  1  0  0  0  0
 12 13  1  0  0  0  0
 12 24  1  0  0  0  0
 13 14  2  0  0  0  0
 13 25  1  0  0  0  0
 14 15  1  0  0  0  0
 14 17  1  0  0  0  0
 15 16  2  0  0  0  0
 15 26  1  0  0  0  0
 16 27  1  0  0  0  0
 17 18  2  0  0  0  0
 17 19  1  0  0  0  0
M  CHG  2  17   1  19  -1
M  END
$$$$

 OpenBabel05152416213D

 42 45  0  0  0  0  0  0  0  0999 V2000
    1.4060   -0.2384    0.0228 C   0  0  0  0  0  0  0  0  0  0  0  0
    0.9073    1.0660   -0.0126 C   0  0  0  0  0  0  0  0  0  0  0  0
   -0.4668    1.2803   -0.0509 C   0  0  0  0  0  0  0  0  0  0  0  0
   -1.3519    0.1922   -0.0288 C   0  0  0  0  0  0  0  0  0  0  0  0
   -0.8547   -1.1153    0.0277 C   0  0  0  0  0  0  0  0  0  0  0  0
    0.5267   -1.3281    0.0403 C   0  0  0  0  0  0  0  0  0  0  0  0
   -2.7873    0.4530   -0.1164 C   0  0  0  0  0  0  0  0  0  0  0  0
   -3.2316    1.2321   -1.1777 C   0  0  0  0  0  0  0  0  0  0  0  0
   -4.5720    1.4984   -1.3292 C   0  0  0  0  0  0  0  0  0  0  0  0
   -5.5213    1.0522   -0.3913 C   0  0  0  0  0  0  0  0  0  0  0  0
   -5.0712    0.2571    0.6840 C   0  0  0  0  0  0  0  0  0  0  0  0
   -3.7091   -0.0613    0.8067 C   0  0  0  0  0  0  0  0  0  0  0  0
   -7.0028    1.3649   -0.5786 C   0  0  0  0  0  0  0  0  0  0  0  0
   -7.3111    2.8656   -0.4874 C   0  0  0  0  0  0  0  0  0  0  0  0
   -8.2028    3.3629    0.4846 C   0  0  0  0  0  0  0  0  0  0  0  0
   -8.5507    4.7236    0.4905 C   0  0  0  0  0  0  0  0  0  0  0  0
   -8.0025    5.5979   -0.4541 C   0  0  0  0  0  0  0  0  0  0  0  0
   -7.1087    5.1217   -1.4002 C   0  0  0  0  0  0  0  0  0  0  0  0
   -6.7745    3.7828   -1.4173 C   0  0  0  0  0  0  0  0  0  0  0  0
   -7.4309    0.8155   -1.8761 N   0  0  0  0  0  0  0  0  0  0  0  0
   -7.3295   -0.4725   -2.2563 C   0  0  0  0  0  0  0  0  0  0  0  0
   -7.7790   -0.5763   -3.5525 C   0  0  0  0  0  0  0  0  0  0  0  0
   -8.1821    0.6332   -3.9831 N   0  0  0  0  0  0  0  0  0  0  0  0
   -7.9696    1.4562   -2.9458 C   0  0  0  0  0  0  0  0  0  0  0  0
    2.4736   -0.4028    0.0337 H   0  0  0  0  0  0  0  0  0  0  0  0
    1.5796    1.9135   -0.0184 H   0  0  0  0  0  0  0  0  0  0  0  0
   -0.8497    2.2950   -0.0802 H   0  0  0  0  0  0  0  0  0  0  0  0
   -1.5316   -1.9618    0.0181 H   0  0  0  0  0  0  0  0  0  0  0  0
    0.9151   -2.3369    0.0551 H   0  0  0  0  0  0  0  0  0  0  0  0
   -2.5408    1.6070   -1.9251 H   0  0  0  0  0  0  0  0  0  0  0  0
   -4.8201    2.0379   -2.2112 H   0  0  0  0  0  0  0  0  0  0  0  0
   -5.7673   -0.1278    1.4189 H   0  0  0  0  0  0  0  0  0  0  0  0
   -3.3681   -0.6757    1.6302 H   0  0  0  0  0  0  0  0  0  0  0  0
   -7.5759    0.8452    0.2264 H   0  0  0  0  0  0  0  0  0  0  0  0
   -8.6521    2.7027    1.2179 H   0  0  0  0  0  0  0  0  0  0  0  0
   -9.2577    5.1029    1.2143 H   0  0  0  0  0  0  0  0  0  0  0  0
   -8.2729    6.6428   -0.4714 H   0  0  0  0  0  0  0  0  0  0  0  0
   -6.6815    5.7735   -2.1512 H   0  0  0  0  0  0  0  0  0  0  0  0
   -6.1360    3.4973   -2.2158 H   0  0  0  0  0  0  0  0  0  0  0  0
   -6.9413   -1.2748   -1.6409 H   0  0  0  0  0  0  0  0  0  0  0  0
   -7.8098   -1.4700   -4.1552 H   0  0  0  0  0  0  0  0  0  0  0  0
   -8.1991    2.5092   -2.9938 H   0  0  0  0  0  0  0  0  0  0  0  0
  1  2  2  0  0  0  0
  1  6  1  0  0  0  0
  1 25  1  0  0  0  0
  2  3  1  0  0  0  0
  2 26  1  0  0  0  0
  3  4  2  0  0  0  0
  3 27  1  0  0  0  0
  4  5  1  0  0  0  0
  4  7  1  0  0  0  0
  5  6  2  0  0  0  0
  5 28  1  0  0  0  0
  6 29  1  0  0  0  0
  7  8  2  0  0  0  0
  7 12  1  0  0  0  0
  8  9  1  0  0  0  0
  8 30  1  0  0  0  0
  9 10  2  0  0  0  0
  9 31  1  0  0  0  0
 10 11  1  0  0  0  0
 10 13  1  0  0  0  0
 11 12  2  0  0  0  0
 11 32  1  0  0  0  0
 12 33  1  0  0  0  0
 13 14  1  0  0  0  0
 13 20  1  0  0  0  0
 13 34  1  0  0  0  0
 14 15  2  0  0  0  0
 14 19  1  0  0  0  0
 15 16  1  0  0  0  0
 15 35  1  0  0  0  0
 16 17  2  0  0  0  0
 16 36  1  0  0  0  0
 17 18  1  0  0  0  0
 17 37  1  0  0  0  0
 18 19  2  0  0  0  0
 18 38  1  0  0  0  0
 19 39  1  0  0  0  0
 20 21  1  0  0  0  0
 20 24  1  0  0  0  0
 21 22  2  0  0  0  0
 21 40  1  0  0  0  0
 22 23  1  0  0  0  0
 22 41  1  0  0  0  0
 23 24  2  0  0  0  0
 24 42  1  0  0  0  0
M  END
$$$$

 OpenBabel05152416213D

 72 73  0  0  1  0  0  0  0  0999 V2000
   -8.9532    3.9752    6.4873 C   0  0  0  0  0  0  0  0  0  0  0  0
   -9.5626    3.6342    5.1460 C   0  0  0  0  0  0  0  0  0  0  0  0
   -9.7239    4.5471    4.1623 C   0  0  0  0  0  0  0  0  0  0  0  0
  -10.3542    3.9952    2.8599 C   0  0  0  0  0  0  0  0  0  0  0  0
  -11.5639    3.9416    2.8080 O   0  0  0  0  0  0  0  0  0  0  0  0
   -9.5769    3.4756    1.8089 N   0  0  0  0  0  0  0  0  0  0  0  0
  -10.0188    3.1571    0.4096 C   0  0  0  0  0  0  0  0  0  0  0  0
   -8.8270    2.5753   -0.4476 C   0  0  0  0  0  0  0  0  0  0  0  0
   -8.3929    1.4739   -0.1461 O   0  0  0  0  0  0  0  0  0  0  0  0
   -8.1388    3.3247   -1.4218 O   0  0  0  0  0  0  0  0  0  0  0  0
   -6.8638    3.8404   -1.1381 C   0  0  1  0  0  0  0  0  0  0  0  0
   -6.2495    5.1110   -1.9926 C   0  0  0  0  0  0  0  0  0  0  0  0
   -5.1326    5.9619   -1.2010 C   0  0  0  0  0  0  0  0  0  0  0  0
   -4.1586    5.3164   -0.8336 O   0  0  0  0  0  0  0  0  0  0  0  0
   -5.3878    7.1980   -0.5500 N   0  0  0  0  0  0  0  0  0  0  0  0
   -5.6497    7.0891    0.9164 C   0  0  1  0  0  0  0  0  0  0  0  0
   -6.0315    8.2144    1.8876 C   0  0  0  0  0  0  0  0  0  0  0  0
   -6.1066    9.3551    1.4174 O   0  0  0  0  0  0  0  0  0  0  0  0
   -6.2511    8.0375    3.2749 N   0  0  0  0  0  0  0  0  0  0  0  0
   -6.4470    6.9735    4.3860 C   0  0  2  0  0  0  0  0  0  0  0  0
   -5.0318    6.0293    4.4556 C   0  0  0  0  0  0  0  0  0  0  0  0
   -4.5954    4.7449    2.9802 S   0  0  0  0  0  0  0  0  0  0  0  0
   -3.2255    2.9825    2.9127 S   0  0  0  0  0  0  0  0  0  0  0  0
   -2.9923    2.3866    1.0715 C   0  0  0  0  0  0  0  0  0  0  0  0
   -4.1488    1.6026    0.3923 C   0  0  0  0  0  0  0  0  0  0  0  0
   -5.2794    2.5228    0.2087 C   0  0  0  0  0  0  0  0  0  0  0  0
   -5.8060    2.8053   -1.0006 C   0  0  0  0  0  0  0  0  0  0  0  0
   -7.7065    5.9156    4.5976 C   0  0  0  0  0  0  0  0  0  0  0  0
   -7.2265    4.8088    4.7922 O   0  0  0  0  0  0  0  0  0  0  0  0
   -9.0996    5.8899    4.2986 N   0  0  0  0  0  0  0  0  0  0  0  0
   -6.7716    6.1323    0.9309 C   0  0  0  0  0  0  0  0  0  0  0  0
   -7.4674    5.9248    2.0945 C   0  0  0  0  0  0  0  0  0  0  0  0
   -7.9670    6.4531    0.0557 C   0  0  0  0  0  0  0  0  0  0  0  0
  -10.6711    4.3739   -0.3808 C   0  0  0  0  0  0  0  0  0  0  0  0
  -11.1746    3.9414   -1.7352 C   0  0  0  0  0  0  0  0  0  0  0  0
  -11.7259    5.1408    0.3968 C   0  0  0  0  0  0  0  0  0  0  0  0
   -8.8218    5.0709    6.6322 H   0  0  0  0  0  0  0  0  0  0  0  0
   -7.9536    3.4901    6.5592 H   0  0  0  0  0  0  0  0  0  0  0  0
   -9.6018    3.6498    7.3052 H   0  0  0  0  0  0  0  0  0  0  0  0
   -9.8456    2.6033    4.9619 H   0  0  0  0  0  0  0  0  0  0  0  0
   -8.5941    3.2682    2.0176 H   0  0  0  0  0  0  0  0  0  0  0  0
  -10.7966    2.3698    0.4897 H   0  0  0  0  0  0  0  0  0  0  0  0
   -7.0838    4.0580   -0.1452 H   0  0  0  0  0  0  0  0  0  0  0  0
   -7.0087    5.7708   -2.4399 H   0  0  0  0  0  0  0  0  0  0  0  0
   -5.8461    4.7166   -2.9394 H   0  0  0  0  0  0  0  0  0  0  0  0
   -6.0930    7.8204   -0.9668 H   0  0  0  0  0  0  0  0  0  0  0  0
   -4.7039    6.7350    1.3930 H   0  0  0  0  0  0  0  0  0  0  0  0
   -5.6172    8.7253    3.7028 H   0  0  0  0  0  0  0  0  0  0  0  0
   -6.7739    7.6542    5.2238 H   0  0  0  0  0  0  0  0  0  0  0  0
   -4.1069    6.6039    4.5346 H   0  0  0  0  0  0  0  0  0  0  0  0
   -5.1012    5.5316    5.4449 H   0  0  0  0  0  0  0  0  0  0  0  0
   -2.1520    1.6470    1.0518 H   0  0  0  0  0  0  0  0  0  0  0  0
   -2.6369    3.1881    0.3816 H   0  0  0  0  0  0  0  0  0  0  0  0
   -4.4716    0.7395    1.0062 H   0  0  0  0  0  0  0  0  0  0  0  0
   -3.8514    1.2018   -0.6147 H   0  0  0  0  0  0  0  0  0  0  0  0
   -5.6372    2.9910    1.1157 H   0  0  0  0  0  0  0  0  0  0  0  0
   -5.4487    2.3474   -1.9109 H   0  0  0  0  0  0  0  0  0  0  0  0
   -9.6328    6.7180    3.9373 H   0  0  0  0  0  0  0  0  0  0  0  0
   -6.1140    5.2549    0.8259 H   0  0  0  0  0  0  0  0  0  0  0  0
   -8.0537    6.8336    2.3867 H   0  0  0  0  0  0  0  0  0  0  0  0
   -8.1121    5.1252    2.1531 H   0  0  0  0  0  0  0  0  0  0  0  0
   -6.7260    5.5600    2.6612 H   0  0  0  0  0  0  0  0  0  0  0  0
   -7.8382    6.6623   -0.9584 H   0  0  0  0  0  0  0  0  0  0  0  0
   -8.4828    5.5227    0.1383 H   0  0  0  0  0  0  0  0  0  0  0  0
   -8.5792    7.3073    0.3911 H   0  0  0  0  0  0  0  0  0  0  0  0
  -10.0438    5.1581   -0.7347 H   0  0  0  0  0  0  0  0  0  0  0  0
  -11.9481    3.1699   -1.6171 H   0  0  0  0  0  0  0  0  0  0  0  0
  -11.5505    4.8424   -2.2676 H   0  0  0  0  0  0  0  0  0  0  0  0
  -10.3321    3.5554   -2.3464 H   0  0  0  0  0  0  0  0  0  0  0  0
  -11.2424    5.6666    1.2510 H   0  0  0  0  0  0  0  0  0  0  0  0
  -12.1460    5.9664   -0.2037 H   0  0  0  0  0  0  0  0  0  0  0  0
  -12.5324    4.4460    0.6987 H   0  0  0  0  0  0  0  0  0  0  0  0
  1  2  1  0  0  0  0
  1 37  1  0  0  0  0
  1 38  1  0  0  0  0
  1 39  1  0  0  0  0
  2  3  2  0  0  0  0
  2 40  1  0  0  0  0
  3  4  1  0  0  0  0
  3 30  1  0  0  0  0
  4  5  2  0  0  0  0
  4  6  1  0  0  0  0
  6  7  1  0  0  0  0
  6 41  1  0  0  0  0
  7  8  1  0  0  0  0
  7 34  1  0  0  0  0
  7 42  1  0  0  0  0
  8  9  2  0  0  0  0
  8 10  1  0  0  0  0
 10 11  1  0  0  0  0
 11 12  1  0  0  0  0
 11 27  1  0  0  0  0
 11 43  1  6  0  0  0
 12 13  1  0  0  0  0
 12 44  1  0  0  0  0
 12 45  1  0  0  0  0
 13 14  2  0  0  0  0
 13 15  1  0  0  0  0
 15 16  1  0  0  0  0
 15 46  1  0  0  0  0
 16 17  1  0  0  0  0
 16 47  1  1  0  0  0
 16 31  1  0  0  0  0
 17 18  2  0  0  0  0
 17 19  1  0  0  0  0
 19 20  1  0  0  0  0
 19 48  1  0  0  0  0
 20 21  1  0  0  0  0
 20 28  1  0  0  0  0
 20 49  1  1  0  0  0
 21 22  1  0  0  0  0
 21 50  1  0  0  0  0
 21 51  1  0  0  0  0
 22 23  1  0  0  0  0
 23 24  1  0  0  0  0
 24 25  1  0  0  0  0
 24 52  1  0  0  0  0
 24 53  1  0  0  0  0
 25 26  1  0  0  0  0
 25 54  1  0  0  0  0
 25 55  1  0  0  0  0
 26 27  2  0  0  0  0
 26 56  1  0  0  0  0
 27 57  1  0  0  0  0
 28 29  2  0  0  0  0
 28 30  1  0  0  0  0
 30 58  1  0  0  0  0
 31 32  1  0  0  0  0
 31 33  1  0  0  0  0
 31 59  1  0  0  0  0
 32 60  1  0  0  0  0
 32 61  1  0  0  0  0
 32 62  1  0  0  0  0
 33 63  1  0  0  0  0
 33 64  1  0  0  0  0
 33 65  1  0  0  0  0
 34 35  1  0  0  0  0
 34 36  1  0  0  0  0
 34 66  1  0  0  0  0
 35 67  1  0  0  0  0
 35 68  1  0  0  0  0
 35 69  1  0  0  0  0
 36 70  1  0  0  0  0
 36 71  1  0  0  0  0
 36 72  1  0  0  0  0
M  END
$$$$

 OpenBabel05152416213D

 63 67  0  0  0  0  0  0  0  0999 V2000
    0.9675   -0.1234   -0.0672 C   0  0  0  0  0  0  0  0  0  0  0  0
    0.5814    1.0988   -0.9294 C   0  0  0  0  0  0  0  0  0  0  0  0
    1.7749    2.0156   -1.1363 C   0  0  0  0  0  0  0  0  0  0  0  0
    2.9727    1.8420   -0.5482 N   0  0  0  0  0  0  0  0  0  0  0  0
    3.7480    2.8532   -0.9203 N   0  0  0  0  0  0  0  0  0  0  0  0
    3.0128    3.6346   -1.7258 C   0  0  0  0  0  0  0  0  0  0  0  0
    1.7692    3.1303   -1.9004 N   0  0  0  0  0  0  0  0  0  0  0  0
    0.6658    3.6332   -2.6609 C   0  0  0  0  0  0  0  0  0  0  0  0
   -0.4147    2.8904   -3.1072 C   0  0  0  0  0  0  0  0  0  0  0  0
   -1.4293    3.6692   -3.7019 C   0  0  0  0  0  0  0  0  0  0  0  0
   -1.1484    5.0237   -3.7257 C   0  0  0  0  0  0  0  0  0  0  0  0
    0.4652    5.2032   -3.2196 S   0  0  0  0  0  0  0  0  0  0  0  0
   -2.1466    6.1104   -4.1174 C   0  0  0  0  0  0  0  0  0  0  0  0
   -2.7462    6.9580   -2.9373 C   0  0  0  0  0  0  0  0  0  0  0  0
   -1.7168    7.7245   -2.1606 C   0  0  0  0  0  0  0  0  0  0  0  0
   -0.8008    7.0042   -1.4199 C   0  0  0  0  0  0  0  0  0  0  0  0
    0.2888    7.6092   -0.8564 C   0  0  0  0  0  0  0  0  0  0  0  0
    0.3922    8.9984   -0.8195 C   0  0  0  0  0  0  0  0  0  0  0  0
   -0.5958    9.7654   -1.4690 C   0  0  0  0  0  0  0  0  0  0  0  0
   -1.6303    9.1255   -2.1725 C   0  0  0  0  0  0  0  0  0  0  0  0
    1.5401    9.6387   -0.0844 C   0  0  0  0  0  0  0  0  0  0  0  0
    1.5665    9.2981    1.4383 C   0  0  0  0  0  0  0  0  0  0  0  0
    1.7326    7.8005    1.7567 C   0  0  0  0  0  0  0  0  0  0  0  0
    2.7257   10.0385    2.0979 C   0  0  0  0  0  0  0  0  0  0  0  0
   -0.4800    1.4141   -3.0978 C   0  0  0  0  0  0  0  0  0  0  0  0
    0.0343    0.6471   -2.1898 N   0  0  0  0  0  0  0  0  0  0  0  0
   -0.9511    0.8182   -4.3586 C   0  0  0  0  0  0  0  0  0  0  0  0
   -2.0365   -0.0639   -4.3682 C   0  0  0  0  0  0  0  0  0  0  0  0
   -2.4819   -0.6048   -5.5781 C   0  0  0  0  0  0  0  0  0  0  0  0
   -1.8402   -0.2770   -6.7764 C   0  0  0  0  0  0  0  0  0  0  0  0
   -0.7559    0.5982   -6.7743 C   0  0  0  0  0  0  0  0  0  0  0  0
   -0.3081    1.1536   -5.5786 C   0  0  0  0  0  0  0  0  0  0  0  0
    1.1007    2.2180   -5.6609 Cl  0  0  0  0  0  0  0  0  0  0  0  0
    3.5481    4.8743   -2.3583 C   0  0  0  0  0  0  0  0  0  0  0  0
    0.4182   -1.0332   -0.3878 H   0  0  0  0  0  0  0  0  0  0  0  0
    0.7399    0.0758    1.0019 H   0  0  0  0  0  0  0  0  0  0  0  0
    2.0456   -0.3790   -0.1448 H   0  0  0  0  0  0  0  0  0  0  0  0
   -0.2444    1.6360   -0.4091 H   0  0  0  0  0  0  0  0  0  0  0  0
   -2.3661    3.2545   -4.0536 H   0  0  0  0  0  0  0  0  0  0  0  0
   -1.6906    6.7676   -4.8848 H   0  0  0  0  0  0  0  0  0  0  0  0
   -3.0312    5.6153   -4.5746 H   0  0  0  0  0  0  0  0  0  0  0  0
   -3.4723    7.6748   -3.3758 H   0  0  0  0  0  0  0  0  0  0  0  0
   -3.3022    6.3076   -2.2264 H   0  0  0  0  0  0  0  0  0  0  0  0
   -0.8948    5.9370   -1.3168 H   0  0  0  0  0  0  0  0  0  0  0  0
    1.0335    6.9487   -0.4517 H   0  0  0  0  0  0  0  0  0  0  0  0
   -0.5497   10.8461   -1.4598 H   0  0  0  0  0  0  0  0  0  0  0  0
   -2.3558    9.7132   -2.7176 H   0  0  0  0  0  0  0  0  0  0  0  0
    2.4940    9.3269   -0.5636 H   0  0  0  0  0  0  0  0  0  0  0  0
    1.4579   10.7442   -0.1885 H   0  0  0  0  0  0  0  0  0  0  0  0
    0.6195    9.6447    1.9080 H   0  0  0  0  0  0  0  0  0  0  0  0
    2.6040    7.3867    1.1964 H   0  0  0  0  0  0  0  0  0  0  0  0
    1.8792    7.6206    2.8362 H   0  0  0  0  0  0  0  0  0  0  0  0
    0.8013    7.2427    1.5492 H   0  0  0  0  0  0  0  0  0  0  0  0
    2.6036   11.1330    1.9728 H   0  0  0  0  0  0  0  0  0  0  0  0
    2.7399    9.8082    3.1852 H   0  0  0  0  0  0  0  0  0  0  0  0
    3.6905    9.7164    1.6498 H   0  0  0  0  0  0  0  0  0  0  0  0
   -2.5505   -0.3080   -3.4467 H   0  0  0  0  0  0  0  0  0  0  0  0
   -3.3267   -1.2782   -5.5891 H   0  0  0  0  0  0  0  0  0  0  0  0
   -2.1799   -0.7015   -7.7102 H   0  0  0  0  0  0  0  0  0  0  0  0
   -0.2551    0.8449   -7.7023 H   0  0  0  0  0  0  0  0  0  0  0  0
    3.4700    4.7809   -3.4606 H   0  0  0  0  0  0  0  0  0  0  0  0
    2.9792    5.7566   -2.0033 H   0  0  0  0  0  0  0  0  0  0  0  0
    4.6158    5.0029   -2.0824 H   0  0  0  0  0  0  0  0  0  0  0  0
  1  2  1  0  0  0  0
  1 35  1  0  0  0  0
  1 36  1  0  0  0  0
  1 37  1  0  0  0  0
  2  3  1  0  0  0  0
  2 26  1  0  0  0  0
  2 38  1  0  0  0  0
  3  4  2  0  0  0  0
  3  7  1  0  0  0  0
  4  5  1  0  0  0  0
  5  6  2  0  0  0  0
  6  7  1  0  0  0  0
  6 34  1  0  0  0  0
  7  8  1  0  0  0  0
  8  9  2  0  0  0  0
  8 12  1  0  0  0  0
  9 10  1  0  0  0  0
  9 25  1  0  0  0  0
 10 11  2  0  0  0  0
 10 39  1  0  0  0  0
 11 12  1  0  0  0  0
 11 13  1  0  0  0  0
 13 14  1  0  0  0  0
 13 40  1  0  0  0  0
 13 41  1  0  0  0  0
 14 15  1  0  0  0  0
 14 42  1  0  0  0  0
 14 43  1  0  0  0  0
 15 16  2  0  0  0  0
 15 20  1  0  0  0  0
 16 17  1  0  0  0  0
 16 44  1  0  0  0  0
 17 18  2  0  0  0  0
 17 45  1  0  0  0  0
 18 19  1  0  0  0  0
 18 21  1  0  0  0  0
 19 20  2  0  0  0  0
 19 46  1  0  0  0  0
 20 47  1  0  0  0  0
 21 22  1  0  0  0  0
 21 48  1  0  0  0  0
 21 49  1  0  0  0  0
 22 23  1  0  0  0  0
 22 24  1  0  0  0  0
 22 50  1  0  0  0  0
 23 51  1  0  0  0  0
 23 52  1  0  0  0  0
 23 53  1  0  0  0  0
 24 54  1  0  0  0  0
 24 55  1  0  0  0  0
 24 56  1  0  0  0  0
 25 26  2  0  0  0  0
 25 27  1  0  0  0  0
 27 28  2  0  0  0  0
 27 32  1  0  0  0  0
 28 29  1  0  0  0  0
 28 57  1  0  0  0  0
 29 30  2  0  0  0  0
 29 58  1  0  0  0  0
 30 31  1  0  0  0  0
 30 59  1  0  0  0  0
 31 32  2  0  0  0  0
 31 60  1  0  0  0  0
 32 33  1  0  0  0  0
 34 61  1  0  0  0  0
 34 62  1  0  0  0  0
 34 63  1  0  0  0  0
M  END
$$$$

 OpenBabel05152416213D

113118  0  0  1  0  0  0  0  0999 V2000
    5.9706   -5.5078    0.6973 C   0  0  0  0  0  0  0  0  0  0  0  0
    6.5075   -6.7376   -0.3518 C   0  0  0  0  0  0  0  0  0  0  0  0
    5.3545   -7.6076   -0.9736 C   0  0  1  0  0  0  0  0  0  0  0  0
    5.6415   -8.1084   -2.7653 C   0  0  0  0  0  0  0  0  0  0  0  0
    4.3985   -8.6070   -3.4501 C   0  0  1  0  0  0  0  0  0  0  0  0
    4.0376   -9.6189   -2.4737 C   0  0  0  0  0  0  0  0  0  0  0  0
    3.2100  -10.5540   -2.9546 C   0  0  0  0  0  0  0  0  0  0  0  0
    2.8511  -11.5687   -2.0805 C   0  0  0  0  0  0  0  0  0  0  0  0
    3.2938  -11.5945   -0.7387 C   0  0  0  0  0  0  0  0  0  0  0  0
    4.1048  -10.6242   -0.2623 C   0  0  0  0  0  0  0  0  0  0  0  0
    4.5011   -9.6745   -1.0858 C   0  0  0  0  0  0  0  0  0  0  0  0
    5.4616   -8.7951   -0.3878 C   0  0  1  0  0  0  0  0  0  0  0  0
    6.8884   -9.2787   -0.4177 C   0  0  0  0  0  0  0  0  0  0  0  0
    7.5239   -9.1333    0.6090 O   0  0  0  0  0  0  0  0  0  0  0  0
    7.5309   -9.5260   -1.5816 O   0  0  0  0  0  0  0  0  0  0  0  0
    8.8483   -9.8445   -1.6702 C   0  0  0  0  0  0  0  0  0  0  0  0
    2.9233  -12.6605    0.1690 C   0  0  0  0  0  0  0  0  0  0  0  0
    3.3250  -12.6582    1.3279 O   0  0  0  0  0  0  0  0  0  0  0  0
    2.0685  -13.7370   -0.3409 C   0  0  0  0  0  0  0  0  0  0  0  0
    1.6162  -13.7244   -1.6890 C   0  0  0  0  0  0  0  0  0  0  0  0
    2.0156  -12.6159   -2.5750 C   0  0  0  0  0  0  0  0  0  0  0  0
    1.6643  -12.5561   -3.7353 O   0  0  0  0  0  0  0  0  0  0  0  0
    0.7923  -14.7718   -2.1500 C   0  0  0  0  0  0  0  0  0  0  0  0
    0.4396  -15.7961   -1.2719 C   0  0  0  0  0  0  0  0  0  0  0  0
    0.8885  -15.8000    0.0470 C   0  0  0  0  0  0  0  0  0  0  0  0
    1.7003  -14.7760    0.5130 C   0  0  0  0  0  0  0  0  0  0  0  0
    0.3130  -14.8444   -3.4143 O   0  0  0  0  0  0  0  0  0  0  0  0
    2.7783  -10.5163   -4.2523 O   0  0  0  0  0  0  0  0  0  0  0  0
    3.2716   -7.7070   -3.7718 O   0  0  0  0  0  0  0  0  0  0  0  0
    3.0362   -6.9355   -2.6543 C   0  0  1  0  0  0  0  0  0  0  0  0
    4.2267   -6.0257   -2.6582 C   0  0  0  0  0  0  0  0  0  0  0  0
    4.1835   -4.9483   -3.2023 C   0  0  1  0  0  0  0  0  0  0  0  0
    2.8797   -4.2526   -2.8289 C   0  0  1  0  0  0  0  0  0  0  0  0
    1.8893   -5.0642   -3.3327 C   0  0  1  0  0  0  0  0  0  0  0  0
    1.8480   -6.1658   -2.5094 O   0  0  0  0  0  0  0  0  0  0  0  0
    0.7660   -4.1510   -3.2529 C   0  0  0  0  0  0  0  0  0  0  0  0
    3.0601   -3.1140   -1.5482 O   0  0  0  0  0  0  0  0  0  0  0  0
    4.0687   -1.6682   -1.4311 C   0  0  1  0  0  0  0  0  0  0  0  0
    6.1641   -2.0747   -1.3200 C   0  0  0  0  0  0  0  0  0  0  0  0
    6.9023   -3.1277   -3.5430 C   0  0  1  0  0  0  0  0  0  0  0  0
    6.1692   -2.3220   -4.9801 C   0  0  1  0  0  0  0  0  0  0  0  0
    4.4037   -1.3105   -4.6885 C   0  0  1  0  0  0  0  0  0  0  0  0
    3.8593   -0.7890   -2.9845 O   0  0  0  0  0  0  0  0  0  0  0  0
    4.3731   -0.4451   -5.6038 C   0  0  0  0  0  0  0  0  0  0  0  0
    7.4950   -1.8181   -4.8652 O   0  0  0  0  0  0  0  0  0  0  0  0
    8.6622   -2.8188   -5.1196 C   0  0  1  0  0  0  0  0  0  0  0  0
    9.1963   -4.1449   -4.2472 C   0  0  0  0  0  0  0  0  0  0  0  0
    8.1988   -5.8123   -4.6175 C   0  0  0  0  0  0  0  0  0  0  0  0
    7.4608   -5.8362   -5.7587 C   0  0  0  0  0  0  0  0  0  0  0  0
    7.0929   -6.9454   -6.1741 O   0  0  0  0  0  0  0  0  0  0  0  0
    7.3417   -4.5275   -6.4487 C   0  0  1  0  0  0  0  0  0  0  0  0
    8.4164   -3.4958   -6.3240 O   0  0  0  0  0  0  0  0  0  0  0  0
    7.2575   -4.7809   -7.8443 C   0  0  0  0  0  0  0  0  0  0  0  0
    7.1487   -4.3247   -3.3961 O   0  0  0  0  0  0  0  0  0  0  0  0
    5.0915   -4.0899   -2.4666 N   0  0  0  0  0  0  0  0  0  0  0  0
    6.1427   -4.4126   -1.4652 C   0  0  0  0  0  0  0  0  0  0  0  0
    4.8396   -2.9746   -3.1040 C   0  0  0  0  0  0  0  0  0  0  0  0
    4.0223   -7.0118   -0.3259 O   0  0  0  0  0  0  0  0  0  0  0  0
    0.9691    0.0544    0.0812 Cl  0  0  0  0  0  0  0  0  0  0  0  0
    5.0319   -4.8569    0.4758 H   0  0  0  0  0  0  0  0  0  0  0  0
    6.6157   -4.5502    0.8274 H   0  0  0  0  0  0  0  0  0  0  0  0
    5.1846   -5.8023    1.2992 H   0  0  0  0  0  0  0  0  0  0  0  0
    7.0900   -6.8152   -1.3953 H   0  0  0  0  0  0  0  0  0  0  0  0
    7.6039   -6.8239   -0.2800 H   0  0  0  0  0  0  0  0  0  0  0  0
    5.8033   -7.5293   -3.7336 H   0  0  0  0  0  0  0  0  0  0  0  0
    6.6331   -8.4093   -3.1038 H   0  0  0  0  0  0  0  0  0  0  0  0
    4.7200   -8.9835   -4.4575 H   0  0  0  0  0  0  0  0  0  0  0  0
    4.4745  -10.5892    0.7567 H   0  0  0  0  0  0  0  0  0  0  0  0
    5.1515   -8.4513    0.6252 H   0  0  0  0  0  0  0  0  0  0  0  0
    9.4885   -9.0250   -1.2819 H   0  0  0  0  0  0  0  0  0  0  0  0
    8.9381  -10.7484   -1.0607 H   0  0  0  0  0  0  0  0  0  0  0  0
    9.1307  -10.0639   -2.7221 H   0  0  0  0  0  0  0  0  0  0  0  0
   -0.1916  -16.6002   -1.6168 H   0  0  0  0  0  0  0  0  0  0  0  0
    0.6055  -16.6009    0.7127 H   0  0  0  0  0  0  0  0  0  0  0  0
    2.0415  -14.7920    1.5411 H   0  0  0  0  0  0  0  0  0  0  0  0
    0.4576  -14.2284   -4.1382 H   0  0  0  0  0  0  0  0  0  0  0  0
    2.9614   -9.8434   -4.9257 H   0  0  0  0  0  0  0  0  0  0  0  0
    2.7951   -7.6876   -1.8878 H   0  0  0  0  0  0  0  0  0  0  0  0
    5.2508   -6.1159   -2.7463 H   0  0  0  0  0  0  0  0  0  0  0  0
    4.5786   -5.9163   -1.8702 H   0  0  0  0  0  0  0  0  0  0  0  0
    4.3966   -5.4158   -4.2871 H   0  0  0  0  0  0  0  0  0  0  0  0
    2.8868   -3.7632   -3.8933 H   0  0  0  0  0  0  0  0  0  0  0  0
    2.1119   -5.4282   -4.4107 H   0  0  0  0  0  0  0  0  0  0  0  0
    0.8799   -3.3500   -4.0390 H   0  0  0  0  0  0  0  0  0  0  0  0
   -0.0133   -4.8367   -3.4439 H   0  0  0  0  0  0  0  0  0  0  0  0
    0.7609   -3.6825   -2.2422 H   0  0  0  0  0  0  0  0  0  0  0  0
    4.2961   -1.3236   -0.4152 H   0  0  0  0  0  0  0  0  0  0  0  0
    5.9221   -2.6131   -0.2940 H   0  0  0  0  0  0  0  0  0  0  0  0
    7.1994   -2.1943   -1.4316 H   0  0  0  0  0  0  0  0  0  0  0  0
    6.0725   -3.9802   -4.3976 H   0  0  0  0  0  0  0  0  0  0  0  0
    5.7568   -2.7034   -5.9284 H   0  0  0  0  0  0  0  0  0  0  0  0
    3.7191   -2.2279   -5.0048 H   0  0  0  0  0  0  0  0  0  0  0  0
    4.4812   -1.1643   -6.4701 H   0  0  0  0  0  0  0  0  0  0  0  0
    3.3794   -0.2314   -5.2139 H   0  0  0  0  0  0  0  0  0  0  0  0
    5.3152   -0.0757   -5.1548 H   0  0  0  0  0  0  0  0  0  0  0  0
    9.4347   -2.1288   -4.7176 H   0  0  0  0  0  0  0  0  0  0  0  0
    9.0632   -3.3868   -3.1295 H   0  0  0  0  0  0  0  0  0  0  0  0
    9.8094   -4.5953   -3.4674 H   0  0  0  0  0  0  0  0  0  0  0  0
    6.9487   -5.9751   -4.3371 H   0  0  0  0  0  0  0  0  0  0  0  0
    7.6990   -6.4967   -3.8052 H   0  0  0  0  0  0  0  0  0  0  0  0
    6.3047   -4.3371   -6.4335 H   0  0  0  0  0  0  0  0  0  0  0  0
    6.3955   -5.4727   -8.0550 H   0  0  0  0  0  0  0  0  0  0  0  0
    7.1218   -3.7732   -8.2990 H   0  0  0  0  0  0  0  0  0  0  0  0
    8.2367   -5.2300   -7.9877 H   0  0  0  0  0  0  0  0  0  0  0  0
    7.8461   -4.7622   -2.7682 H   0  0  0  0  0  0  0  0  0  0  0  0
    7.2639   -4.1050   -1.1099 H   0  0  0  0  0  0  0  0  0  0  0  0
    5.2908   -4.2480   -1.1526 H   0  0  0  0  0  0  0  0  0  0  0  0
    6.4543   -5.1604   -1.6890 H   0  0  0  0  0  0  0  0  0  0  0  0
    5.4835   -1.8666   -3.1043 H   0  0  0  0  0  0  0  0  0  0  0  0
    5.3432   -2.0678   -3.0786 H   0  0  0  0  0  0  0  0  0  0  0  0
    4.1733   -2.7557   -3.2605 H   0  0  0  0  0  0  0  0  0  0  0  0
    3.5339   -6.0545   -0.4054 H   0  0  0  0  0  0  0  0  0  0  0  0
    2.3425    0.0582    0.0839 H   0  0  0  0  0  0  0  0  0  0  0  0
  1  2  1  0  0  0  0
  1 60  1  0  0  0  0
  1 61  1  0  0  0  0
  1 62  1  0  0  0  0
  2 63  1  0  0  0  0
  2 64  1  0  0  0  0
  3  4  1  0  0  0  0
  3 12  1  0  0  0  0
  3 58  1  1  0  0  0
  3  2  1  0  0  0  0
  4  5  1  0  0  0  0
  4 65  1  0  0  0  0
  4 66  1  0  0  0  0
  5  6  1  0  0  0  0
  5 29  1  0  0  0  0
  5 67  1  6  0  0  0
  6  7  2  0  0  0  0
  6 11  1  0  0  0  0
  7  8  1  0  0  0  0
  7 28  1  0  0  0  0
  8  9  2  0  0  0  0
  8 21  1  0  0  0  0
  9 10  1  0  0  0  0
  9 17  1  0  0  0  0
 10 11  2  0  0  0  0
 10 68  1  0  0  0  0
 11 12  1  0  0  0  0
 12 13  1  0  0  0  0
 12 69  1  1  0  0  0
 13 14  2  0  0  0  0
 13 15  1  0  0  0  0
 15 16  1  0  0  0  0
 16 70  1  0  0  0  0
 16 71  1  0  0  0  0
 16 72  1  0  0  0  0
 17 18  2  0  0  0  0
 17 19  1  0  0  0  0
 19 20  2  0  0  0  0
 19 26  1  0  0  0  0
 20 21  1  0  0  0  0
 20 23  1  0  0  0  0
 21 22  2  0  0  0  0
 23 24  2  0  0  0  0
 23 27  1  0  0  0  0
 24 25  1  0  0  0  0
 24 73  1  0  0  0  0
 25 26  2  0  0  0  0
 25 74  1  0  0  0  0
 26 75  1  0  0  0  0
 27 76  1  0  0  0  0
 28 77  1  0  0  0  0
 30 31  1  0  0  0  0
 30 35  1  0  0  0  0
 30 78  1  1  0  0  0
 30 29  1  0  0  0  0
 31 32  1  0  0  0  0
 31 79  1  0  0  0  0
 31 80  1  0  0  0  0
 32 33  1  0  0  0  0
 32 81  1  6  0  0  0
 32 55  1  0  0  0  0
 33 34  1  0  0  0  0
 33 82  1  6  0  0  0
 33 37  1  0  0  0  0
 34 35  1  0  0  0  0
 34 36  1  0  0  0  0
 34 83  1  6  0  0  0
 36 84  1  0  0  0  0
 36 85  1  0  0  0  0
 36 86  1  0  0  0  0
 38 39  1  0  0  0  0
 38 43  1  0  0  0  0
 38 87  1  1  0  0  0
 38 37  1  0  0  0  0
 39 40  1  0  0  0  0
 39 88  1  0  0  0  0
 39 89  1  0  0  0  0
 40 41  1  0  0  0  0
 40 90  1  1  0  0  0
 40 54  1  0  0  0  0
 41 42  1  0  0  0  0
 41 91  1  6  0  0  0
 41 45  1  0  0  0  0
 42 43  1  0  0  0  0
 42 44  1  0  0  0  0
 42 92  1  6  0  0  0
 44 93  1  0  0  0  0
 44 94  1  0  0  0  0
 44 95  1  0  0  0  0
 46 47  1  0  0  0  0
 46 52  1  0  0  0  0
 46 96  1  6  0  0  0
 46 45  1  0  0  0  0
 47 48  1  0  0  0  0
 47 97  1  0  0  0  0
 47 98  1  0  0  0  0
 48 49  1  0  0  0  0
 48 99  1  0  0  0  0
 48100  1  0  0  0  0
 49 50  2  0  0  0  0
 49 51  1  0  0  0  0
 51 52  1  0  0  0  0
 51 53  1  0  0  0  0
 51101  1  1  0  0  0
 53102  1  0  0  0  0
 53103  1  0  0  0  0
 53104  1  0  0  0  0
 54105  1  0  0  0  0
 55 56  1  0  0  0  0
 55 57  1  0  0  0  0
 56106  1  0  0  0  0
 56107  1  0  0  0  0
 56108  1  0  0  0  0
 57109  1  0  0  0  0
 57110  1  0  0  0  0
 57111  1  0  0  0  0
 58112  1  0  0  0  0
 59113  1  0  0  0  0
M  END
$$$$

 OpenBabel05152416213D

 74 73  0  0  0  0  0  0  0  0999 V2000
    0.1205    0.7042    0.3716 C   0  0  0  0  0  0  0  0  0  0  0  0
    0.1596    1.1754   -1.1354 C   0  0  0  0  0  0  0  0  0  0  0  0
    0.8064    0.3761   -2.3606 C   0  0  0  0  0  0  0  0  0  0  0  0
    0.3555   -1.1020   -2.4707 C   0  0  0  0  0  0  0  0  0  0  0  0
   -1.1564   -1.1403   -2.5214 C   0  0  0  0  0  0  0  0  0  0  0  0
   -1.6338   -0.3323   -3.7443 C   0  0  0  0  0  0  0  0  0  0  0  0
   -1.0655   -0.9701   -5.0341 C   0  0  0  0  0  0  0  0  0  0  0  0
   -1.5599   -2.4282   -5.1256 C   0  0  0  0  0  0  0  0  0  0  0  0
   -3.1035   -2.4283   -5.1126 C   0  0  0  0  0  0  0  0  0  0  0  0
   -3.6120   -1.5934   -6.3073 C   0  0  0  0  0  0  0  0  0  0  0  0
   -3.0812   -2.2198   -7.6135 C   0  0  0  0  0  0  0  0  0  0  0  0
   -3.5854   -3.6752   -7.7123 C   0  0  0  0  0  0  0  0  0  0  0  0
   -5.1282   -3.6779   -7.7028 C   0  0  0  0  0  0  0  0  0  0  0  0
   -5.6448   -2.8477   -8.8960 C   0  0  0  0  0  0  0  0  0  0  0  0
   -5.1268   -3.4581  -10.2162 C   0  0  0  0  0  0  0  0  0  0  0  0
   -5.6230   -4.9085  -10.3592 C   0  0  0  0  0  0  0  0  0  0  0  0
   -7.1577   -4.9503  -10.3273 C   0  0  0  0  0  0  0  0  0  0  0  0
   -7.7349   -4.1511  -11.5012 C   0  0  0  0  0  0  0  0  0  0  0  0
   -7.2759   -4.7221  -12.7551 N   0  0  0  0  0  0  0  0  0  0  0  0
   -7.3557   -6.0415  -13.0845 C   0  0  0  0  0  0  0  0  0  0  0  0
   -6.8687   -6.2000  -14.3462 C   0  0  0  0  0  0  0  0  0  0  0  0
   -6.4835   -4.9832  -14.8121 N   0  3  0  0  0  0  0  0  0  0  0  0
   -6.7182   -4.1173  -13.8114 C   0  0  0  0  0  0  0  0  0  0  0  0
   -5.9676   -4.7087  -16.1319 C   0  0  0  0  0  0  0  0  0  0  0  0
    2.0749   -0.5682   -0.4207 F   0  0  0  0  0  0  0  0  0  0  0  0
    3.6821   -0.5031   -0.1786 P   0  5  0  0  0  0  0  0  0  0  0  0
    3.4140   -1.8861   -1.1576 F   0  0  0  0  0  0  0  0  0  0  0  0
    2.8334   -0.1503    1.2784 F   0  0  0  0  0  0  0  0  0  0  0  0
    3.9574    1.1035    0.3779 F   0  0  0  0  0  0  0  0  0  0  0  0
    3.7031   -1.8157    0.9151 F   0  0  0  0  0  0  0  0  0  0  0  0
    3.7704    0.5238   -1.5479 F   0  0  0  0  0  0  0  0  0  0  0  0
   -0.1255   -0.3856    0.2833 H   0  0  0  0  0  0  0  0  0  0  0  0
    0.3552    0.4063    1.4234 H   0  0  0  0  0  0  0  0  0  0  0  0
    1.0831    1.1527    0.6601 H   0  0  0  0  0  0  0  0  0  0  0  0
   -0.9055    1.2877   -1.3748 H   0  0  0  0  0  0  0  0  0  0  0  0
    0.6122    2.1865   -1.1552 H   0  0  0  0  0  0  0  0  0  0  0  0
    0.5985    0.9451   -3.2911 H   0  0  0  0  0  0  0  0  0  0  0  0
    1.8804    0.3682   -2.4801 H   0  0  0  0  0  0  0  0  0  0  0  0
    0.8365   -1.5966   -3.3473 H   0  0  0  0  0  0  0  0  0  0  0  0
    0.6812   -1.7531   -1.6456 H   0  0  0  0  0  0  0  0  0  0  0  0
   -1.5045   -2.1892   -2.5147 H   0  0  0  0  0  0  0  0  0  0  0  0
   -1.5772   -0.7430   -1.5861 H   0  0  0  0  0  0  0  0  0  0  0  0
   -2.7305   -0.2538   -3.7236 H   0  0  0  0  0  0  0  0  0  0  0  0
   -1.3695    0.7344   -3.7047 H   0  0  0  0  0  0  0  0  0  0  0  0
   -1.3389   -0.3556   -5.9086 H   0  0  0  0  0  0  0  0  0  0  0  0
    0.0351   -0.9385   -5.1082 H   0  0  0  0  0  0  0  0  0  0  0  0
   -1.1252   -2.9247   -6.0093 H   0  0  0  0  0  0  0  0  0  0  0  0
   -1.1717   -3.0743   -4.3213 H   0  0  0  0  0  0  0  0  0  0  0  0
   -3.4857   -3.4608   -5.0978 H   0  0  0  0  0  0  0  0  0  0  0  0
   -3.5364   -2.0503   -4.1724 H   0  0  0  0  0  0  0  0  0  0  0  0
   -4.7099   -1.5081   -6.2724 H   0  0  0  0  0  0  0  0  0  0  0  0
   -3.3302   -0.5283   -6.2546 H   0  0  0  0  0  0  0  0  0  0  0  0
   -3.3645   -1.5964   -8.4767 H   0  0  0  0  0  0  0  0  0  0  0  0
   -1.9821   -2.1918   -7.6991 H   0  0  0  0  0  0  0  0  0  0  0  0
   -3.1544   -4.1673   -8.5984 H   0  0  0  0  0  0  0  0  0  0  0  0
   -3.1996   -4.3269   -6.9101 H   0  0  0  0  0  0  0  0  0  0  0  0
   -5.5062   -4.7135   -7.7001 H   0  0  0  0  0  0  0  0  0  0  0  0
   -5.5566   -3.2928   -6.7603 H   0  0  0  0  0  0  0  0  0  0  0  0
   -6.7436   -2.7722   -8.8573 H   0  0  0  0  0  0  0  0  0  0  0  0
   -5.3591   -1.7828   -8.8366 H   0  0  0  0  0  0  0  0  0  0  0  0
   -5.4324   -2.8288  -11.0669 H   0  0  0  0  0  0  0  0  0  0  0  0
   -4.0245   -3.4325  -10.2969 H   0  0  0  0  0  0  0  0  0  0  0  0
   -5.2313   -5.3452  -11.2969 H   0  0  0  0  0  0  0  0  0  0  0  0
   -5.2215   -5.5682   -9.5629 H   0  0  0  0  0  0  0  0  0  0  0  0
   -7.4951   -6.0019  -10.3749 H   0  0  0  0  0  0  0  0  0  0  0  0
   -7.5786   -4.5844   -9.3711 H   0  0  0  0  0  0  0  0  0  0  0  0
   -8.8360   -4.2046  -11.4519 H   0  0  0  0  0  0  0  0  0  0  0  0
   -7.4840   -3.0649  -11.4520 H   0  0  0  0  0  0  0  0  0  0  0  0
   -7.7409   -6.8169  -12.4419 H   0  0  0  0  0  0  0  0  0  0  0  0
   -6.8100   -7.1253  -14.8986 H   0  0  0  0  0  0  0  0  0  0  0  0
   -6.5104   -3.0435  -13.8728 H   0  0  0  0  0  0  0  0  0  0  0  0
   -6.6465   -3.9899  -16.6417 H   0  0  0  0  0  0  0  0  0  0  0  0
   -4.9480   -4.2772  -16.0616 H   0  0  0  0  0  0  0  0  0  0  0  0
   -5.9325   -5.6420  -16.7343 H   0  0  0  0  0  0  0  0  0  0  0  0
  1  2  1  0  0  0  0
  1 32  1  0  0  0  0
  1 33  1  0  0  0  0
  1 34  1  0  0  0  0
  2  3  1  0  0  0  0
  2 35  1  0  0  0  0
  2 36  1  0  0  0  0
  3  4  1  0  0  0  0
  3 37  1  0  0  0  0
  3 38  1  0  0  0  0
  4  5  1  0  0  0  0
  4 39  1  0  0  0  0
  4 40  1  0  0  0  0
  5  6  1  0  0  0  0
  5 41  1  0  0  0  0
  5 42  1  0  0  0  0
  6  7  1  0  0  0  0
  6 43  1  0  0  0  0
  6 44  1  0  0  0  0
  7  8  1  0  0  0  0
  7 45  1  0  0  0  0
  7 46  1  0  0  0  0
  8  9  1  0  0  0  0
  8 47  1  0  0  0  0
  8 48  1  0  0  0  0
  9 10  1  0  0  0  0
  9 49  1  0  0  0  0
  9 50  1  0  0  0  0
 10 11  1  0  0  0  0
 10 51  1  0  0  0  0
 10 52  1  0  0  0  0
 11 12  1  0  0  0  0
 11 53  1  0  0  0  0
 11 54  1  0  0  0  0
 12 13  1  0  0  0  0
 12 55  1  0  0  0  0
 12 56  1  0  0  0  0
 13 14  1  0  0  0  0
 13 57  1  0  0  0  0
 13 58  1  0  0  0  0
 14 15  1  0  0  0  0
 14 59  1  0  0  0  0
 14 60  1  0  0  0  0
 15 16  1  0  0  0  0
 15 61  1  0  0  0  0
 15 62  1  0  0  0  0
 16 17  1  0  0  0  0
 16 63  1  0  0  0  0
 16 64  1  0  0  0  0
 17 18  1  0  0  0  0
 17 65  1  0  0  0  0
 17 66  1  0  0  0  0
 18 19  1  0  0  0  0
 18 67  1  0  0  0  0
 18 68  1  0  0  0  0
 19 20  1  0  0  0  0
 19 23  1  0  0  0  0
 20 21  2  0  0  0  0
 20 69  1  0  0  0  0
 21 22  1  0  0  0  0
 21 70  1  0  0  0  0
 22 23  2  0  0  0  0
 22 24  1  0  0  0  0
 23 71  1  0  0  0  0
 24 72  1  0  0  0  0
 24 73  1  0  0  0  0
 24 74  1  0  0  0  0
 25 26  1  0  0  0  0
 26 27  1  0  0  0  0
 26 28  1  0  0  0  0
 26 29  1  0  0  0  0
 26 30  1  0  0  0  0
 26 31  1  0  0  0  0
M  CHG  2  22   1  26  -1
M  END
$$$$

 OpenBabel05152416213D

 78 79  0  0  0  0  0  0  0  0999 V2000
    2.2103    0.2707    0.7399 C   0  0  0  0  0  0  0  0  0  0  0  0
    1.4236    1.8265    0.1272 C   0  0  0  0  0  0  0  0  0  0  0  0
    1.3387    2.4507   -1.3681 C   0  0  0  0  0  0  0  0  0  0  0  0
    0.2875    2.9160   -2.3014 C   0  0  0  0  0  0  0  0  0  0  0  0
   -1.3174    2.8425   -2.1899 C   0  0  0  0  0  0  0  0  0  0  0  0
   -2.2006    2.2322   -3.2112 C   0  0  0  0  0  0  0  0  0  0  0  0
   -3.5831    1.9440   -2.9505 C   0  0  0  0  0  0  0  0  0  0  0  0
   -4.1086    2.2528   -1.6909 C   0  0  0  0  0  0  0  0  0  0  0  0
   -3.2954    2.8812   -0.7434 C   0  0  0  0  0  0  0  0  0  0  0  0
   -1.9400    3.1905   -0.9915 C   0  0  0  0  0  0  0  0  0  0  0  0
    0.5292    3.0606   -3.8233 C   0  0  0  0  0  0  0  0  0  0  0  0
   -0.1042    4.0923   -4.5009 C   0  0  0  0  0  0  0  0  0  0  0  0
    0.1167    4.3098   -5.8723 C   0  0  0  0  0  0  0  0  0  0  0  0
    0.9825    3.4479   -6.5878 C   0  0  0  0  0  0  0  0  0  0  0  0
    1.4731    2.2930   -5.9652 C   0  0  0  0  0  0  0  0  0  0  0  0
    1.2920    2.1199   -4.5824 C   0  0  0  0  0  0  0  0  0  0  0  0
    1.5967    3.9453   -7.7165 O   0  0  0  0  0  0  0  0  0  0  0  0
    2.8845    3.5889   -8.1880 C   0  0  0  0  0  0  0  0  0  0  0  0
    4.1888    3.8319   -7.3096 C   0  0  0  0  0  0  0  0  0  0  0  0
    4.0927    3.2528   -5.9862 N   0  0  0  0  0  0  0  0  0  0  0  0
    5.3637    2.9845   -5.3281 C   0  0  0  0  0  0  0  0  0  0  0  0
    3.3787    4.1718   -5.1092 C   0  0  0  0  0  0  0  0  0  0  0  0
    2.7016    2.3076   -1.7357 C   0  0  0  0  0  0  0  0  0  0  0  0
    3.2869    3.4660   -2.1224 C   0  0  0  0  0  0  0  0  0  0  0  0
    4.6265    3.4003   -2.4207 C   0  0  0  0  0  0  0  0  0  0  0  0
    5.3708    2.2260   -2.2529 C   0  0  0  0  0  0  0  0  0  0  0  0
    4.7624    1.0619   -1.8235 C   0  0  0  0  0  0  0  0  0  0  0  0
    3.4198    1.1245   -1.6247 C   0  0  0  0  0  0  0  0  0  0  0  0
   -0.3242   -0.3780    0.0403 C   0  0  0  0  0  0  0  0  0  0  0  0
   -0.5896    0.6302    1.3925 C   0  0  0  0  0  0  0  0  0  0  0  0
   -1.4114    1.5398    1.3433 O   0  0  0  0  0  0  0  0  0  0  0  0
    0.2831    0.7301    2.4697 O   0  0  0  0  0  0  0  0  0  0  0  0
   -0.2166   -0.4468   -1.6615 C   0  0  0  0  0  0  0  0  0  0  0  0
    0.7101   -1.4260   -2.4866 C   0  0  0  0  0  0  0  0  0  0  0  0
    0.3880   -2.7357   -2.0988 C   0  0  0  0  0  0  0  0  0  0  0  0
   -0.4133   -3.3642   -2.7682 O   0  0  0  0  0  0  0  0  0  0  0  0
    0.7417   -3.0942   -0.8641 O   0  0  0  0  0  0  0  0  0  0  0  0
   -1.6318   -0.4889   -1.7995 C   0  0  0  0  0  0  0  0  0  0  0  0
   -2.1731    0.4900   -1.3962 O   0  0  0  0  0  0  0  0  0  0  0  0
   -2.2213   -1.6276   -1.4823 O   0  0  0  0  0  0  0  0  0  0  0  0
    0.2489    0.6043   -2.4028 O   0  0  0  0  0  0  0  0  0  0  0  0
    2.1473   -0.7284    0.1783 H   0  0  0  0  0  0  0  0  0  0  0  0
    1.7453   -0.4077    1.5208 H   0  0  0  0  0  0  0  0  0  0  0  0
    3.2652   -0.0714    0.7754 H   0  0  0  0  0  0  0  0  0  0  0  0
    0.3522    1.9493   -0.0496 H   0  0  0  0  0  0  0  0  0  0  0  0
    1.5480    2.6504    0.8505 H   0  0  0  0  0  0  0  0  0  0  0  0
   -1.8566    1.8004   -4.1621 H   0  0  0  0  0  0  0  0  0  0  0  0
   -4.2208    1.3781   -3.6410 H   0  0  0  0  0  0  0  0  0  0  0  0
   -5.1204    1.9464   -1.4210 H   0  0  0  0  0  0  0  0  0  0  0  0
   -3.6826    3.0686    0.2448 H   0  0  0  0  0  0  0  0  0  0  0  0
   -1.3510    3.6391   -0.2314 H   0  0  0  0  0  0  0  0  0  0  0  0
   -0.7012    4.8018   -3.9355 H   0  0  0  0  0  0  0  0  0  0  0  0
   -0.2607    5.2284   -6.2874 H   0  0  0  0  0  0  0  0  0  0  0  0
    2.1768    1.6275   -6.4539 H   0  0  0  0  0  0  0  0  0  0  0  0
    1.8391    1.3077   -4.1388 H   0  0  0  0  0  0  0  0  0  0  0  0
    2.8411    2.5227   -8.4554 H   0  0  0  0  0  0  0  0  0  0  0  0
    3.0929    4.1813   -9.1007 H   0  0  0  0  0  0  0  0  0  0  0  0
    5.0315    3.3266   -7.8396 H   0  0  0  0  0  0  0  0  0  0  0  0
    4.4797    4.8972   -7.1918 H   0  0  0  0  0  0  0  0  0  0  0  0
    5.7925    3.9323   -4.9146 H   0  0  0  0  0  0  0  0  0  0  0  0
    5.1140    2.2191   -4.5848 H   0  0  0  0  0  0  0  0  0  0  0  0
    6.1191    2.4681   -5.9321 H   0  0  0  0  0  0  0  0  0  0  0  0
    3.6972    5.1975   -4.9453 H   0  0  0  0  0  0  0  0  0  0  0  0
    2.5303    4.5517   -5.5316 H   0  0  0  0  0  0  0  0  0  0  0  0
    3.0395    3.5922   -4.3151 H   0  0  0  0  0  0  0  0  0  0  0  0
    2.6821    4.3492   -2.2582 H   0  0  0  0  0  0  0  0  0  0  0  0
    5.0328    4.2882   -2.8453 H   0  0  0  0  0  0  0  0  0  0  0  0
    6.4003    2.1769   -2.5263 H   0  0  0  0  0  0  0  0  0  0  0  0
    5.2842    0.1259   -1.6846 H   0  0  0  0  0  0  0  0  0  0  0  0
    3.0030    0.1855   -1.3782 H   0  0  0  0  0  0  0  0  0  0  0  0
   -0.3327   -1.3951    0.4067 H   0  0  0  0  0  0  0  0  0  0  0  0
    0.5051   -0.1609   -0.4398 H   0  0  0  0  0  0  0  0  0  0  0  0
    0.4675    1.5204    3.0324 H   0  0  0  0  0  0  0  0  0  0  0  0
    0.5373   -1.3008   -3.6006 H   0  0  0  0  0  0  0  0  0  0  0  0
    1.8259   -1.2355   -2.4339 H   0  0  0  0  0  0  0  0  0  0  0  0
    0.3205   -3.8276   -0.4215 H   0  0  0  0  0  0  0  0  0  0  0  0
   -3.0269   -1.5091   -0.9689 H   0  0  0  0  0  0  0  0  0  0  0  0
   -0.1721    0.6612   -3.3006 H   0  0  0  0  0  0  0  0  0  0  0  0
  1  2  1  0  0  0  0
  1 42  1  0  0  0  0
  1 43  1  0  0  0  0
  1 44  1  0  0  0  0
  2  3  1  0  0  0  0
  2 45  1  0  0  0  0
  2 46  1  0  0  0  0
  3  4  2  0  0  0  0
  3 23  1  0  0  0  0
  4  5  1  0  0  0  0
  4 11  1  0  0  0  0
  5  6  2  0  0  0  0
  5 10  1  0  0  0  0
  6  7  1  0  0  0  0
  6 47  1  0  0  0  0
  7  8  2  0  0  0  0
  7 48  1  0  0  0  0
  8  9  1  0  0  0  0
  8 49  1  0  0  0  0
  9 10  2  0  0  0  0
  9 50  1  0  0  0  0
 10 51  1  0  0  0  0
 11 12  2  0  0  0  0
 11 16  1  0  0  0  0
 12 13  1  0  0  0  0
 12 52  1  0  0  0  0
 13 14  2  0  0  0  0
 13 53  1  0  0  0  0
 14 15  1  0  0  0  0
 14 17  1  0  0  0  0
 15 16  2  0  0  0  0
 15 54  1  0  0  0  0
 16 55  1  0  0  0  0
 17 18  1  0  0  0  0
 18 19  1  0  0  0  0
 18 56  1  0  0  0  0
 18 57  1  0  0  0  0
 19 20  1  0  0  0  0
 19 58  1  0  0  0  0
 19 59  1  0  0  0  0
 20 21  1  0  0  0  0
 20 22  1  0  0  0  0
 21 60  1  0  0  0  0
 21 61  1  0  0  0  0
 21 62  1  0  0  0  0
 22 63  1  0  0  0  0
 22 64  1  0  0  0  0
 22 65  1  0  0  0  0
 23 24  2  0  0  0  0
 23 28  1  0  0  0  0
 24 25  1  0  0  0  0
 24 66  1  0  0  0  0
 25 26  2  0  0  0  0
 25 67  1  0  0  0  0
 26 27  1  0  0  0  0
 26 68  1  0  0  0  0
 27 28  2  0  0  0  0
 27 69  1  0  0  0  0
 28 70  1  0  0  0  0
 29 30  1  0  0  0  0
 29 33  1  0  0  0  0
 29 71  1  0  0  0  0
 29 72  1  0  0  0  0
 30 31  2  0  0  0  0
 30 32  1  0  0  0  0
 32 73  1  0  0  0  0
 33 34  1  0  0  0  0
 33 38  1  0  0  0  0
 33 41  1  0  0  0  0
 34 35  1  0  0  0  0
 34 74  1  0  0  0  0
 34 75  1  0  0  0  0
 35 36  2  0  0  0  0
 35 37  1  0  0  0  0
 37 76  1  0  0  0  0
 38 39  2  0  0  0  0
 38 40  1  0  0  0  0
 40 77  1  0  0  0  0
 41 78  1  0  0  0  0
M  END
$$$$

 OpenBabel05152416213D

 60 65  0  0  0  0  0  0  0  0999 V2000
    1.2153   -0.2033   -0.0139 C   0  0  0  0  0  0  0  0  0  0  0  0
    0.7267   -0.3764    1.4660 C   0  0  0  0  0  0  0  0  0  0  0  0
    1.3665   -1.6034    2.0443 C   0  0  0  0  0  0  0  0  0  0  0  0
    0.7556   -2.6588    2.6848 C   0  0  0  0  0  0  0  0  0  0  0  0
    1.7698   -3.5394    2.9929 C   0  0  0  0  0  0  0  0  0  0  0  0
    2.9551   -2.9938    2.5174 C   0  0  0  0  0  0  0  0  0  0  0  0
    2.7071   -1.7909    1.9837 N   0  0  0  0  0  0  0  0  0  0  0  0
    3.6250   -0.8338    1.3985 C   0  0  0  0  0  0  0  0  0  0  0  0
    4.5607   -1.2089    0.4228 C   0  0  0  0  0  0  0  0  0  0  0  0
    5.2563   -0.2200   -0.2953 C   0  0  0  0  0  0  0  0  0  0  0  0
    5.0307    1.1389   -0.0414 C   0  0  0  0  0  0  0  0  0  0  0  0
    4.1245    1.5215    0.9450 C   0  0  0  0  0  0  0  0  0  0  0  0
    3.4245    0.5400    1.6613 C   0  0  0  0  0  0  0  0  0  0  0  0
    2.4164    0.9180    2.7000 C   0  0  0  0  0  0  0  0  0  0  0  0
    1.0739    0.7217    2.3068 O   0  0  0  0  0  0  0  0  0  0  0  0
   -0.8532   -0.4834    1.4339 C   0  0  0  0  0  0  0  0  0  0  0  0
   -1.5640    0.7083    0.8979 N   0  0  0  0  0  0  0  0  0  0  0  0
   -1.2238    1.8992    1.7003 C   0  0  0  0  0  0  0  0  0  0  0  0
   -2.0171    3.0645    1.2848 C   0  0  0  0  0  0  0  0  0  0  0  0
   -1.7165    3.4189   -0.1618 C   0  0  0  0  0  0  0  0  0  0  0  0
   -2.0609    2.1681   -1.0666 C   0  0  0  0  0  0  0  0  0  0  0  0
   -1.3839    0.9301   -0.5611 C   0  0  0  0  0  0  0  0  0  0  0  0
   -2.5540    4.5209   -0.6563 N   0  0  0  0  0  0  0  0  0  0  0  0
   -3.8863    4.4207   -0.5968 C   0  0  0  0  0  0  0  0  0  0  0  0
   -4.6891    4.0877    0.4977 C   0  0  0  0  0  0  0  0  0  0  0  0
   -6.0128    3.7634    0.2882 C   0  0  0  0  0  0  0  0  0  0  0  0
   -6.5455    3.8212   -1.0081 C   0  0  0  0  0  0  0  0  0  0  0  0
   -5.7488    4.2576   -2.1008 C   0  0  0  0  0  0  0  0  0  0  0  0
   -4.3964    4.5652   -1.8554 C   0  0  0  0  0  0  0  0  0  0  0  0
   -3.4035    4.9447   -2.6896 N   0  0  0  0  0  0  0  0  0  0  0  0
   -2.2789    4.9673   -1.9149 C   0  0  0  0  0  0  0  0  0  0  0  0
   -1.1653    5.1910   -2.3216 O   0  0  0  0  0  0  0  0  0  0  0  0
    1.3411    0.8760   -0.2090 H   0  0  0  0  0  0  0  0  0  0  0  0
    0.6460   -0.8583   -0.7080 H   0  0  0  0  0  0  0  0  0  0  0  0
    2.2186   -0.4098   -0.3570 H   0  0  0  0  0  0  0  0  0  0  0  0
   -0.2990   -2.7741    2.9142 H   0  0  0  0  0  0  0  0  0  0  0  0
    1.6490   -4.4756    3.5124 H   0  0  0  0  0  0  0  0  0  0  0  0
    3.9368   -3.4269    2.5941 H   0  0  0  0  0  0  0  0  0  0  0  0
    4.6871   -2.2486    0.1596 H   0  0  0  0  0  0  0  0  0  0  0  0
    5.9456   -0.5022   -1.0789 H   0  0  0  0  0  0  0  0  0  0  0  0
    5.5455    1.8985   -0.6186 H   0  0  0  0  0  0  0  0  0  0  0  0
    3.9360    2.5769    1.1194 H   0  0  0  0  0  0  0  0  0  0  0  0
    2.6168    0.3482    3.6310 H   0  0  0  0  0  0  0  0  0  0  0  0
    2.5213    1.9934    2.9549 H   0  0  0  0  0  0  0  0  0  0  0  0
   -1.1648   -1.3786    0.8475 H   0  0  0  0  0  0  0  0  0  0  0  0
   -1.2396   -0.6641    2.4643 H   0  0  0  0  0  0  0  0  0  0  0  0
   -0.2002    2.2460    1.5245 H   0  0  0  0  0  0  0  0  0  0  0  0
   -1.4533    1.7031    2.7740 H   0  0  0  0  0  0  0  0  0  0  0  0
   -1.7740    3.9392    1.9232 H   0  0  0  0  0  0  0  0  0  0  0  0
   -3.0140    2.6493    1.4181 H   0  0  0  0  0  0  0  0  0  0  0  0
   -0.6320    3.6712   -0.2556 H   0  0  0  0  0  0  0  0  0  0  0  0
   -3.1453    1.9556   -1.1134 H   0  0  0  0  0  0  0  0  0  0  0  0
   -1.7128    2.3422   -2.1211 H   0  0  0  0  0  0  0  0  0  0  0  0
   -1.6170    0.0164   -1.1576 H   0  0  0  0  0  0  0  0  0  0  0  0
   -0.4136    1.2641   -0.8049 H   0  0  0  0  0  0  0  0  0  0  0  0
   -4.3261    4.0891    1.5104 H   0  0  0  0  0  0  0  0  0  0  0  0
   -6.6053    3.4561    1.1412 H   0  0  0  0  0  0  0  0  0  0  0  0
   -7.5799    3.5385   -1.1321 H   0  0  0  0  0  0  0  0  0  0  0  0
   -6.1840    4.3061   -3.0870 H   0  0  0  0  0  0  0  0  0  0  0  0
   -3.4002    5.1137   -3.7228 H   0  0  0  0  0  0  0  0  0  0  0  0
  1  2  1  0  0  0  0
  1 33  1  0  0  0  0
  1 34  1  0  0  0  0
  1 35  1  0  0  0  0
  2  3  1  0  0  0  0
  2 15  1  0  0  0  0
  2 16  1  0  0  0  0
  3  4  2  0  0  0  0
  3  7  1  0  0  0  0
  4  5  1  0  0  0  0
  4 36  1  0  0  0  0
  5  6  2  0  0  0  0
  5 37  1  0  0  0  0
  6  7  1  0  0  0  0
  6 38  1  0  0  0  0
  7  8  1  0  0  0  0
  8  9  2  0  0  0  0
  8 13  1  0  0  0  0
  9 10  1  0  0  0  0
  9 39  1  0  0  0  0
 10 11  2  0  0  0  0
 10 40  1  0  0  0  0
 11 12  1  0  0  0  0
 11 41  1  0  0  0  0
 12 13  2  0  0  0  0
 12 42  1  0  0  0  0
 13 14  1  0  0  0  0
 14 15  1  0  0  0  0
 14 43  1  0  0  0  0
 14 44  1  0  0  0  0
 16 17  1  0  0  0  0
 16 45  1  0  0  0  0
 16 46  1  0  0  0  0
 17 18  1  0  0  0  0
 17 22  1  0  0  0  0
 18 19  1  0  0  0  0
 18 47  1  0  0  0  0
 18 48  1  0  0  0  0
 19 20  1  0  0  0  0
 19 49  1  0  0  0  0
 19 50  1  0  0  0  0
 20 21  1  0  0  0  0
 20 23  1  0  0  0  0
 20 51  1  0  0  0  0
 21 22  1  0  0  0  0
 21 52  1  0  0  0  0
 21 53  1  0  0  0  0
 22 54  1  0  0  0  0
 22 55  1  0  0  0  0
 23 24  1  0  0  0  0
 23 31  1  0  0  0  0
 24 25  2  0  0  0  0
 24 29  1  0  0  0  0
 25 26  1  0  0  0  0
 25 56  1  0  0  0  0
 26 27  2  0  0  0  0
 26 57  1  0  0  0  0
 27 28  1  0  0  0  0
 27 58  1  0  0  0  0
 28 29  2  0  0  0  0
 28 59  1  0  0  0  0
 29 30  1  0  0  0  0
 30 31  1  0  0  0  0
 30 60  1  0  0  0  0
 31 32  2  0  0  0  0
M  END
$$$$

 OpenBabel05152416213D

 61 65  0  0  0  0  0  0  0  0999 V2000
   -1.4002   -0.2683    0.4515 C   0  0  0  0  0  0  0  0  0  0  0  0
   -0.3458    1.1779    1.1824 C   0  0  0  0  0  0  0  0  0  0  0  0
    1.2586    1.2353    0.7736 C   0  0  0  0  0  0  0  0  0  0  0  0
    1.7014   -0.2100    0.4932 N   0  0  0  0  0  0  0  0  0  0  0  0
    0.8265   -1.3785   -0.0879 C   0  0  0  0  0  0  0  0  0  0  0  0
   -0.6443   -1.4926    0.4373 C   0  0  0  0  0  0  0  0  0  0  0  0
    2.9704   -0.1404   -0.2317 C   0  0  0  0  0  0  0  0  0  0  0  0
    2.8286   -0.0396   -1.8276 C   0  0  0  0  0  0  0  0  0  0  0  0
    2.0287    0.9409   -2.5164 O   0  0  0  0  0  0  0  0  0  0  0  0
    0.6602    1.3099   -2.4297 C   0  0  0  0  0  0  0  0  0  0  0  0
   -0.0501    1.9776   -3.3345 C   0  0  0  0  0  0  0  0  0  0  0  0
   -1.3250    2.4882   -2.9877 C   0  0  0  0  0  0  0  0  0  0  0  0
   -1.9479    2.3614   -1.7061 C   0  0  0  0  0  0  0  0  0  0  0  0
   -1.4337    1.7058   -0.9698 C   0  0  0  0  0  0  0  0  0  0  0  0
   -0.1709    1.0802   -1.4059 C   0  0  0  0  0  0  0  0  0  0  0  0
   -3.2119    2.9938   -1.3846 C   0  0  0  0  0  0  0  0  0  0  0  0
   -3.2378    3.6369   -2.2876 O   0  0  0  0  0  0  0  0  0  0  0  0
   -4.4880    3.2887   -0.6581 C   0  0  0  0  0  0  0  0  0  0  0  0
   -5.2993    2.4866    0.3466 C   0  0  0  0  0  0  0  0  0  0  0  0
   -6.6698    2.3426   -0.5164 S   0  0  0  0  0  0  0  0  0  0  0  0
   -6.2185    2.8514   -2.0967 C   0  0  0  0  0  0  0  0  0  0  0  0
   -5.4797    3.9147   -1.9272 C   0  0  0  0  0  0  0  0  0  0  0  0
   -5.2586    4.4504   -3.4915 C   0  0  0  0  0  0  0  0  0  0  0  0
   -4.6578    3.5917   -4.4906 C   0  0  0  0  0  0  0  0  0  0  0  0
   -4.5279    2.3138   -4.0293 C   0  0  0  0  0  0  0  0  0  0  0  0
   -5.3083    1.9598   -2.8615 C   0  0  0  0  0  0  0  0  0  0  0  0
   -3.6436    1.4647   -4.6030 O   0  0  0  0  0  0  0  0  0  0  0  0
   -5.5932    2.0470    1.9516 C   0  0  0  0  0  0  0  0  0  0  0  0
   -6.8694    1.4213    2.2871 C   0  0  0  0  0  0  0  0  0  0  0  0
   -7.4380    1.3909    3.6004 C   0  0  0  0  0  0  0  0  0  0  0  0
   -6.7081    1.8005    4.7054 C   0  0  0  0  0  0  0  0  0  0  0  0
   -5.4300    2.3116    4.4749 C   0  0  0  0  0  0  0  0  0  0  0  0
   -4.8858    2.4284    3.1432 C   0  0  0  0  0  0  0  0  0  0  0  0
   -7.2206    1.6685    5.9622 O   0  0  0  0  0  0  0  0  0  0  0  0
   -2.5622   -0.2547    0.5196 H   0  0  0  0  0  0  0  0  0  0  0  0
   -1.7563   -0.4532   -0.7374 H   0  0  0  0  0  0  0  0  0  0  0  0
   -0.6237    2.4055    1.0170 H   0  0  0  0  0  0  0  0  0  0  0  0
   -0.4796    1.2233    2.2214 H   0  0  0  0  0  0  0  0  0  0  0  0
    1.6492    1.6830   -0.2342 H   0  0  0  0  0  0  0  0  0  0  0  0
    1.5556    2.2675    0.2340 H   0  0  0  0  0  0  0  0  0  0  0  0
    1.2782   -2.3585    0.1103 H   0  0  0  0  0  0  0  0  0  0  0  0
    0.7027   -1.3656   -1.2325 H   0  0  0  0  0  0  0  0  0  0  0  0
   -0.6885   -1.5294    1.4851 H   0  0  0  0  0  0  0  0  0  0  0  0
   -1.2454   -2.2671   -0.1539 H   0  0  0  0  0  0  0  0  0  0  0  0
    3.5429    0.7392    0.1623 H   0  0  0  0  0  0  0  0  0  0  0  0
    3.5168   -1.0452    0.1115 H   0  0  0  0  0  0  0  0  0  0  0  0
    3.9032   -0.0259   -2.1564 H   0  0  0  0  0  0  0  0  0  0  0  0
    2.4393   -0.9800   -2.1918 H   0  0  0  0  0  0  0  0  0  0  0  0
    0.3532    2.0627   -4.2791 H   0  0  0  0  0  0  0  0  0  0  0  0
   -1.8508    2.9938   -3.6700 H   0  0  0  0  0  0  0  0  0  0  0  0
   -2.1382    1.6834    0.0062 H   0  0  0  0  0  0  0  0  0  0  0  0
    0.1778    0.4803   -0.9152 H   0  0  0  0  0  0  0  0  0  0  0  0
   -5.8757    5.1562   -4.1757 H   0  0  0  0  0  0  0  0  0  0  0  0
   -4.3528    3.8294   -5.5595 H   0  0  0  0  0  0  0  0  0  0  0  0
   -4.8701    1.1283   -2.3590 H   0  0  0  0  0  0  0  0  0  0  0  0
   -3.4042    0.6385   -4.1563 H   0  0  0  0  0  0  0  0  0  0  0  0
   -7.4844    0.9944    1.5124 H   0  0  0  0  0  0  0  0  0  0  0  0
   -8.4678    1.0696    3.7645 H   0  0  0  0  0  0  0  0  0  0  0  0
   -4.8793    2.6754    5.3371 H   0  0  0  0  0  0  0  0  0  0  0  0
   -3.9262    2.8657    3.0643 H   0  0  0  0  0  0  0  0  0  0  0  0
   -6.6999    1.8271    6.7687 H   0  0  0  0  0  0  0  0  0  0  0  0
  1  2  1  0  0  0  0
  1  6  1  0  0  0  0
  1 35  1  0  0  0  0
  1 36  1  0  0  0  0
  2  3  1  0  0  0  0
  2 37  1  0  0  0  0
  2 38  1  0  0  0  0
  3  4  1  0  0  0  0
  3 39  1  0  0  0  0
  3 40  1  0  0  0  0
  4  5  1  0  0  0  0
  4  7  1  0  0  0  0
  5  6  1  0  0  0  0
  5 41  1  0  0  0  0
  5 42  1  0  0  0  0
  6 43  1  0  0  0  0
  6 44  1  0  0  0  0
  7  8  1  0  0  0  0
  7 45  1  0  0  0  0
  7 46  1  0  0  0  0
  8  9  1  0  0  0  0
  8 47  1  0  0  0  0
  8 48  1  0  0  0  0
  9 10  1  0  0  0  0
 10 11  2  0  0  0  0
 10 15  1  0  0  0  0
 11 12  1  0  0  0  0
 11 49  1  0  0  0  0
 12 13  2  0  0  0  0
 12 50  1  0  0  0  0
 13 14  1  0  0  0  0
 13 16  1  0  0  0  0
 14 15  2  0  0  0  0
 14 51  1  0  0  0  0
 15 52  1  0  0  0  0
 16 17  2  0  0  0  0
 16 18  1  0  0  0  0
 18 19  2  0  0  0  0
 18 22  1  0  0  0  0
 19 20  1  0  0  0  0
 19 28  1  0  0  0  0
 20 21  1  0  0  0  0
 21 22  2  0  0  0  0
 21 26  1  0  0  0  0
 22 23  1  0  0  0  0
 23 24  2  0  0  0  0
 23 53  1  0  0  0  0
 24 25  1  0  0  0  0
 24 54  1  0  0  0  0
 25 26  2  0  0  0  0
 25 27  1  0  0  0  0
 26 55  1  0  0  0  0
 27 56  1  0  0  0  0
 28 29  2  0  0  0  0
 28 33  1  0  0  0  0
 29 30  1  0  0  0  0
 29 57  1  0  0  0  0
 30 31  2  0  0  0  0
 30 58  1  0  0  0  0
 31 32  1  0  0  0  0
 31 34  1  0  0  0  0
 32 33  2  0  0  0  0
 32 59  1  0  0  0  0
 33 60  1  0  0  0  0
 34 61  1  0  0  0  0
M  END
$$$$

 OpenBabel05152416213D

 45 47  0  0  0  0  0  0  0  0999 V2000
    0.6229   -0.1603    0.1172 C   0  0  0  0  0  0  0  0  0  0  0  0
    0.3615    1.2322    0.6426 C   0  0  0  0  0  0  0  0  0  0  0  0
    0.8621    2.4401   -0.0976 N   0  3  0  0  0  0  0  0  0  0  0  0
    0.4129    3.6570    0.4359 C   0  0  0  0  0  0  0  0  0  0  0  0
   -0.4028    3.6976    1.6085 C   0  0  0  0  0  0  0  0  0  0  0  0
   -0.9014    4.8804    2.1358 C   0  0  0  0  0  0  0  0  0  0  0  0
   -0.6008    6.0786    1.5047 C   0  0  0  0  0  0  0  0  0  0  0  0
    0.2121    6.0934    0.3687 C   0  0  0  0  0  0  0  0  0  0  0  0
    0.7467    4.8926   -0.1879 C   0  0  0  0  0  0  0  0  0  0  0  0
    1.5807    4.8874   -1.3361 C   0  0  0  0  0  0  0  0  0  0  0  0
    1.9449    6.0668   -2.0384 C   0  0  0  0  0  0  0  0  0  0  0  0
    2.7621    6.0160   -3.1726 C   0  0  0  0  0  0  0  0  0  0  0  0
    3.2478    4.7981   -3.6360 C   0  0  0  0  0  0  0  0  0  0  0  0
    2.9046    3.6428   -2.9709 C   0  0  0  0  0  0  0  0  0  0  0  0
    2.0757    3.6520   -1.8277 C   0  0  0  0  0  0  0  0  0  0  0  0
    1.7044    2.4392   -1.2081 C   0  0  0  0  0  0  0  0  0  0  0  0
    2.2600    1.1877   -1.8315 C   0  0  0  0  0  0  0  0  0  0  0  0
    3.6408    0.8898   -1.7771 C   0  0  0  0  0  0  0  0  0  0  0  0
    4.1250   -0.3013   -2.3328 C   0  0  0  0  0  0  0  0  0  0  0  0
    3.2294   -1.2397   -2.8499 C   0  0  0  0  0  0  0  0  0  0  0  0
    1.8703   -0.9444   -2.9140 C   0  0  0  0  0  0  0  0  0  0  0  0
    1.4068    0.3019   -2.4978 C   0  0  0  0  0  0  0  0  0  0  0  0
    4.0739    4.7123   -4.7823 N   0  0  0  0  0  0  0  0  0  0  0  0
   -1.7135    4.8419    3.3002 N   0  0  0  0  0  0  0  0  0  0  0  0
    2.4652   -0.8688    2.6439 Br  0  5  0  0  0  0  0  0  0  0  0  0
   -0.0119   -0.3068   -0.7606 H   0  0  0  0  0  0  0  0  0  0  0  0
    0.2238   -0.9569    0.7606 H   0  0  0  0  0  0  0  0  0  0  0  0
    1.7128   -0.3309    0.0040 H   0  0  0  0  0  0  0  0  0  0  0  0
   -0.7508    1.2796    0.6652 H   0  0  0  0  0  0  0  0  0  0  0  0
    0.7644    1.2690    1.6755 H   0  0  0  0  0  0  0  0  0  0  0  0
   -0.6907    2.8202    2.1647 H   0  0  0  0  0  0  0  0  0  0  0  0
   -0.9965    7.0065    1.9004 H   0  0  0  0  0  0  0  0  0  0  0  0
    0.4011    7.0641   -0.0537 H   0  0  0  0  0  0  0  0  0  0  0  0
    1.6055    7.0439   -1.7448 H   0  0  0  0  0  0  0  0  0  0  0  0
    3.0146    6.9257   -3.6965 H   0  0  0  0  0  0  0  0  0  0  0  0
    3.2985    2.7350   -3.3991 H   0  0  0  0  0  0  0  0  0  0  0  0
    4.3391    1.5754   -1.3099 H   0  0  0  0  0  0  0  0  0  0  0  0
    5.1853   -0.5180   -2.3295 H   0  0  0  0  0  0  0  0  0  0  0  0
    3.5837   -2.1951   -3.2089 H   0  0  0  0  0  0  0  0  0  0  0  0
    1.1672   -1.6815   -3.2769 H   0  0  0  0  0  0  0  0  0  0  0  0
    0.3573    0.5466   -2.6060 H   0  0  0  0  0  0  0  0  0  0  0  0
    4.4242    3.7953   -5.1058 H   0  0  0  0  0  0  0  0  0  0  0  0
    4.3350    5.5535   -5.3106 H   0  0  0  0  0  0  0  0  0  0  0  0
   -2.1090    5.7018    3.7052 H   0  0  0  0  0  0  0  0  0  0  0  0
   -1.9245    3.9442    3.7654 H   0  0  0  0  0  0  0  0  0  0  0  0
  1  2  1  0  0  0  0
  1 26  1  0  0  0  0
  1 27  1  0  0  0  0
  1 28  1  0  0  0  0
  2  3  1  0  0  0  0
  2 29  1  0  0  0  0
  2 30  1  0  0  0  0
  3  4  2  0  0  0  0
  3 16  1  0  0  0  0
  4  5  1  0  0  0  0
  4  9  1  0  0  0  0
  5  6  2  0  0  0  0
  5 31  1  0  0  0  0
  6  7  1  0  0  0  0
  6 24  1  0  0  0  0
  7  8  2  0  0  0  0
  7 32  1  0  0  0  0
  8  9  1  0  0  0  0
  8 33  1  0  0  0  0
  9 10  2  0  0  0  0
 10 11  1  0  0  0  0
 10 15  1  0  0  0  0
 11 12  2  0  0  0  0
 11 34  1  0  0  0  0
 12 13  1  0  0  0  0
 12 35  1  0  0  0  0
 13 14  2  0  0  0  0
 13 23  1  0  0  0  0
 14 15  1  0  0  0  0
 14 36  1  0  0  0  0
 15 16  2  0  0  0  0
 16 17  1  0  0  0  0
 17 18  2  0  0  0  0
 17 22  1  0  0  0  0
 18 19  1  0  0  0  0
 18 37  1  0  0  0  0
 19 20  2  0  0  0  0
 19 38  1  0  0  0  0
 20 21  1  0  0  0  0
 20 39  1  0  0  0  0
 21 22  2  0  0  0  0
 21 40  1  0  0  0  0
 22 41  1  0  0  0  0
 23 42  1  0  0  0  0
 23 43  1  0  0  0  0
 24 44  1  0  0  0  0
 24 45  1  0  0  0  0
M  CHG  2   3   1  25  -1
M  END
$$$$

 OpenBabel05152416213D

 57 59  0  0  0  0  0  0  0  0999 V2000
    1.3765   -0.0032   -0.5575 C   0  0  0  0  0  0  0  0  0  0  0  0
    0.9124    0.9801    0.5228 C   0  0  0  0  0  0  0  0  0  0  0  0
    1.3600    1.6191    1.9075 N   0  0  0  0  0  0  0  0  0  0  0  0
    0.7343    1.7955    3.3876 C   0  0  0  0  0  0  0  0  0  0  0  0
    0.9050    0.7036    4.5425 C   0  0  0  0  0  0  0  0  0  0  0  0
    2.7818    1.4634    1.9768 C   0  0  0  0  0  0  0  0  0  0  0  0
    3.1314    0.1423    2.6999 C   0  0  0  0  0  0  0  0  0  0  0  0
    2.1980   -0.9686    2.6553 O   0  0  0  0  0  0  0  0  0  0  0  0
    0.8099   -1.2847    2.5109 C   0  0  0  0  0  0  0  0  0  0  0  0
    0.4984   -2.6053    2.6056 C   0  0  0  0  0  0  0  0  0  0  0  0
   -0.7758   -3.0010    2.2699 C   0  0  0  0  0  0  0  0  0  0  0  0
   -1.7794   -2.0759    1.8474 C   0  0  0  0  0  0  0  0  0  0  0  0
   -1.4814   -0.8391    1.8096 C   0  0  0  0  0  0  0  0  0  0  0  0
   -0.4029   -0.3818    2.2258 C   0  0  0  0  0  0  0  0  0  0  0  0
   -3.2034   -2.2084    1.6356 C   0  0  0  0  0  0  0  0  0  0  0  0
   -3.7847   -3.3091    2.0948 C   0  0  0  0  0  0  0  0  0  0  0  0
   -5.1804   -3.4833    1.9555 C   0  0  0  0  0  0  0  0  0  0  0  0
   -5.8446   -4.1401    2.9731 C   0  0  0  0  0  0  0  0  0  0  0  0
   -7.1589   -4.4854    2.7817 C   0  0  0  0  0  0  0  0  0  0  0  0
   -7.8257   -4.0833    1.6229 C   0  0  0  0  0  0  0  0  0  0  0  0
   -7.1636   -3.3664    0.6315 C   0  0  0  0  0  0  0  0  0  0  0  0
   -5.8352   -3.0932    0.7821 C   0  0  0  0  0  0  0  0  0  0  0  0
   -3.0293   -4.7383    2.8354 Cl  0  0  0  0  0  0  0  0  0  0  0  0
   -4.0886   -1.0022    1.1745 C   0  0  0  0  0  0  0  0  0  0  0  0
   -5.0884   -0.4865    2.0214 C   0  0  0  0  0  0  0  0  0  0  0  0
   -5.9942    0.4637    1.5426 C   0  0  0  0  0  0  0  0  0  0  0  0
   -5.8484    0.9973    0.2621 C   0  0  0  0  0  0  0  0  0  0  0  0
   -4.7911    0.5864   -0.5483 C   0  0  0  0  0  0  0  0  0  0  0  0
   -3.9176   -0.4075   -0.1013 C   0  0  0  0  0  0  0  0  0  0  0  0
    1.0500    0.6447   -1.3903 H   0  0  0  0  0  0  0  0  0  0  0  0
    0.7570   -1.0099   -0.5840 H   0  0  0  0  0  0  0  0  0  0  0  0
    2.4771   -0.2307   -0.6127 H   0  0  0  0  0  0  0  0  0  0  0  0
   -0.1825    0.8276    0.2524 H   0  0  0  0  0  0  0  0  0  0  0  0
    1.3115    0.0854    0.8851 H   0  0  0  0  0  0  0  0  0  0  0  0
    0.9918    2.7639    3.7929 H   0  0  0  0  0  0  0  0  0  0  0  0
   -0.3794    1.9293    3.4946 H   0  0  0  0  0  0  0  0  0  0  0  0
    1.8837    0.6547    4.9252 H   0  0  0  0  0  0  0  0  0  0  0  0
    0.3277    0.8829    5.4458 H   0  0  0  0  0  0  0  0  0  0  0  0
    0.5789   -0.3316    4.4800 H   0  0  0  0  0  0  0  0  0  0  0  0
    3.1906    1.4371    0.9422 H   0  0  0  0  0  0  0  0  0  0  0  0
    3.1816    2.3986    2.4033 H   0  0  0  0  0  0  0  0  0  0  0  0
    4.2268   -0.0611    2.5779 H   0  0  0  0  0  0  0  0  0  0  0  0
    3.3180    0.3622    3.7231 H   0  0  0  0  0  0  0  0  0  0  0  0
    1.2347   -3.3403    2.9415 H   0  0  0  0  0  0  0  0  0  0  0  0
   -0.8905   -4.0177    2.3388 H   0  0  0  0  0  0  0  0  0  0  0  0
   -2.1358   -0.0382    1.4166 H   0  0  0  0  0  0  0  0  0  0  0  0
   -0.5522    0.6539    2.1428 H   0  0  0  0  0  0  0  0  0  0  0  0
   -5.3243   -4.4009    3.8942 H   0  0  0  0  0  0  0  0  0  0  0  0
   -7.6507   -5.0754    3.5262 H   0  0  0  0  0  0  0  0  0  0  0  0
   -8.8534   -4.3373    1.4901 H   0  0  0  0  0  0  0  0  0  0  0  0
   -7.6507   -3.0562   -0.2744 H   0  0  0  0  0  0  0  0  0  0  0  0
   -5.3218   -2.6036   -0.0342 H   0  0  0  0  0  0  0  0  0  0  0  0
   -5.1758   -0.8493    3.0386 H   0  0  0  0  0  0  0  0  0  0  0  0
   -6.8254    0.7730    2.1570 H   0  0  0  0  0  0  0  0  0  0  0  0
   -6.5521    1.7358   -0.0961 H   0  0  0  0  0  0  0  0  0  0  0  0
   -4.6677    1.0083   -1.5370 H   0  0  0  0  0  0  0  0  0  0  0  0
   -3.1179   -0.7335   -0.7498 H   0  0  0  0  0  0  0  0  0  0  0  0
  1  2  1  0  0  0  0
  1 30  1  0  0  0  0
  1 31  1  0  0  0  0
  1 32  1  0  0  0  0
  2  3  1  0  0  0  0
  2 33  1  0  0  0  0
  2 34  1  0  0  0  0
  3  4  1  0  0  0  0
  3  6  1  0  0  0  0
  4  5  1  0  0  0  0
  4 35  1  0  0  0  0
  4 36  1  0  0  0  0
  5 37  1  0  0  0  0
  5 38  1  0  0  0  0
  5 39  1  0  0  0  0
  6  7  1  0  0  0  0
  6 40  1  0  0  0  0
  6 41  1  0  0  0  0
  7  8  1  0  0  0  0
  7 42  1  0  0  0  0
  7 43  1  0  0  0  0
  8  9  1  0  0  0  0
  9 10  2  0  0  0  0
  9 14  1  0  0  0  0
 10 11  1  0  0  0  0
 10 44  1  0  0  0  0
 11 12  2  0  0  0  0
 11 45  1  0  0  0  0
 12 13  1  0  0  0  0
 12 15  1  0  0  0  0
 13 14  2  0  0  0  0
 13 46  1  0  0  0  0
 14 47  1  0  0  0  0
 15 16  2  0  0  0  0
 15 24  1  0  0  0  0
 16 17  1  0  0  0  0
 16 23  1  0  0  0  0
 17 18  2  0  0  0  0
 17 22  1  0  0  0  0
 18 19  1  0  0  0  0
 18 48  1  0  0  0  0
 19 20  2  0  0  0  0
 19 49  1  0  0  0  0
 20 21  1  0  0  0  0
 20 50  1  0  0  0  0
 21 22  2  0  0  0  0
 21 51  1  0  0  0  0
 22 52  1  0  0  0  0
 24 25  2  0  0  0  0
 24 29  1  0  0  0  0
 25 26  1  0  0  0  0
 25 53  1  0  0  0  0
 26 27  2  0  0  0  0
 26 54  1  0  0  0  0
 27 28  1  0  0  0  0
 27 55  1  0  0  0  0
 28 29  2  0  0  0  0
 28 56  1  0  0  0  0
 29 57  1  0  0  0  0
M  END
$$$$

 OpenBabel05152416213D

 30 30  0  0  0  0  0  0  0  0999 V2000
   -3.7113   -0.6747    0.0127 C   0  0  0  0  0  0  0  0  0  0  0  0
   -3.7112    0.7446    0.0215 C   0  0  0  0  0  0  0  0  0  0  0  0
   -2.6077    1.5860    0.0365 C   0  0  0  0  0  0  0  0  0  0  0  0
   -1.4374    1.0336   -0.0115 C   0  0  0  0  0  0  0  0  0  0  0  0
   -1.4864   -0.8353    0.0051 C   0  0  0  0  0  0  0  0  0  0  0  0
   -2.6204   -1.4536    0.0274 C   0  0  0  0  0  0  0  0  0  0  0  0
    0.0401   -1.8071   -0.0235 C   0  0  0  0  0  0  0  0  0  0  0  0
    1.6790   -0.9358   -0.0407 C   0  0  0  0  0  0  0  0  0  0  0  0
    2.7689   -1.5831    0.0803 C   0  0  0  0  0  0  0  0  0  0  0  0
    3.8283   -0.6939    0.1208 C   0  0  0  0  0  0  0  0  0  0  0  0
    3.8069    0.7909    0.1040 C   0  0  0  0  0  0  0  0  0  0  0  0
    2.7342    1.7071    0.0258 C   0  0  0  0  0  0  0  0  0  0  0  0
    1.6328    1.1154   -0.1072 C   0  0  0  0  0  0  0  0  0  0  0  0
    0.0599    1.8841   -0.0690 N   0  0  0  0  0  0  0  0  0  0  0  0
   -0.0355   -3.1777    0.0007 N   0  0  0  0  0  0  0  0  0  0  0  0
    0.1632    0.1025    1.3594 O   0  0  0  0  0  0  0  0  0  0  0  0
    1.6348   -0.3662   -2.7417 Cl  0  0  0  0  0  0  0  0  0  0  0  0
   -4.5996   -1.2329   -0.0221 H   0  0  0  0  0  0  0  0  0  0  0  0
   -4.6243    1.2399   -0.0114 H   0  0  0  0  0  0  0  0  0  0  0  0
   -2.5724    2.6284    0.0214 H   0  0  0  0  0  0  0  0  0  0  0  0
   -2.6184   -2.5075   -0.0057 H   0  0  0  0  0  0  0  0  0  0  0  0
    2.7348   -2.6955    0.0832 H   0  0  0  0  0  0  0  0  0  0  0  0
    4.7456   -1.2108    0.1021 H   0  0  0  0  0  0  0  0  0  0  0  0
    4.7132    1.2994    0.0925 H   0  0  0  0  0  0  0  0  0  0  0  0
    2.6621    2.7988    0.0223 H   0  0  0  0  0  0  0  0  0  0  0  0
   -0.9419   -3.6378   -0.0031 H   0  0  0  0  0  0  0  0  0  0  0  0
    0.8276   -3.6922   -0.0288 H   0  0  0  0  0  0  0  0  0  0  0  0
    0.0790    0.0614    0.1843 H   0  0  0  0  0  0  0  0  0  0  0  0
    1.0533    0.1650    1.8381 H   0  0  0  0  0  0  0  0  0  0  0  0
    2.5622    0.0049   -1.8527 H   0  0  0  0  0  0  0  0  0  0  0  0
  1  2  2  0  0  0  0
  1  6  1  0  0  0  0
  1 18  1  0  0  0  0
  2  3  1  0  0  0  0
  2 19  1  0  0  0  0
  3  4  2  0  0  0  0
  3 20  1  0  0  0  0
  4  5  1  0  0  0  0
  4 14  1  0  0  0  0
  5  6  2  0  0  0  0
  5  7  1  0  0  0  0
  6 21  1  0  0  0  0
  7  8  2  0  0  0  0
  7 15  1  0  0  0  0
  8  9  1  0  0  0  0
  8 13  1  0  0  0  0
  9 10  2  0  0  0  0
  9 22  1  0  0  0  0
 10 11  1  0  0  0  0
 10 23  1  0  0  0  0
 11 12  2  0  0  0  0
 11 24  1  0  0  0  0
 12 13  1  0  0  0  0
 12 25  1  0  0  0  0
 13 14  2  0  0  0  0
 15 26  1  0  0  0  0
 15 27  1  0  0  0  0
 16 28  1  0  0  0  0
 16 29  1  0  0  0  0
 17 30  1  0  0  0  0
M  END
$$$$

 OpenBabel05152416213D

 56 55  0  0  0  0  0  0  0  0999 V2000
    0.2494    0.2518    0.3483 C   0  0  0  0  0  0  0  0  0  0  0  0
    0.2205    1.6573    0.8793 C   0  0  0  0  0  0  0  0  0  0  0  0
    0.9392    2.6399   -0.1126 C   0  0  0  0  0  0  0  0  0  0  0  0
    0.4542    2.4381   -1.5683 C   0  0  0  0  0  0  0  0  0  0  0  0
   -1.0866    2.4364   -1.5917 C   0  0  0  0  0  0  0  0  0  0  0  0
   -1.5996    3.7463   -0.9720 C   0  0  0  0  0  0  0  0  0  0  0  0
   -1.0746    4.9343   -1.7965 C   0  0  0  0  0  0  0  0  0  0  0  0
   -1.5684    4.7997   -3.2489 C   0  0  0  0  0  0  0  0  0  0  0  0
   -3.1079    4.7759   -3.2669 C   0  0  0  0  0  0  0  0  0  0  0  0
   -3.6671    6.0834   -2.6612 C   0  0  0  0  0  0  0  0  0  0  0  0
   -3.1758    7.3087   -3.4578 C   0  0  0  0  0  0  0  0  0  0  0  0
   -3.6300    7.2032   -4.9185 C   0  0  0  0  0  0  0  0  0  0  0  0
   -5.0870    7.1605   -4.9533 N   0  0  0  0  0  0  0  0  0  0  0  0
   -5.8910    8.2355   -4.9213 C   0  0  0  0  0  0  0  0  0  0  0  0
   -7.1949    7.7956   -4.9076 C   0  0  0  0  0  0  0  0  0  0  0  0
   -7.1862    6.4489   -4.9116 N   0  3  0  0  0  0  0  0  0  0  0  0
   -5.8948    6.0768   -4.9408 C   0  0  0  0  0  0  0  0  0  0  0  0
   -8.3447    5.5690   -4.8784 C   0  0  0  0  0  0  0  0  0  0  0  0
    2.1377   -1.3781   -0.6457 F   0  0  0  0  0  0  0  0  0  0  0  0
    3.6939   -0.6835   -0.2617 P   0  5  0  0  0  0  0  0  0  0  0  0
    4.7091   -0.6927    1.0838 F   0  0  0  0  0  0  0  0  0  0  0  0
    4.4437    0.7351   -0.8470 F   0  0  0  0  0  0  0  0  0  0  0  0
    3.2749   -2.0242    0.7263 F   0  0  0  0  0  0  0  0  0  0  0  0
    3.1029   -0.2839   -1.8514 F   0  0  0  0  0  0  0  0  0  0  0  0
    3.0425    0.5334    0.7624 F   0  0  0  0  0  0  0  0  0  0  0  0
   -0.1961    0.0231   -0.6372 H   0  0  0  0  0  0  0  0  0  0  0  0
    0.1224   -0.5541    1.0927 H   0  0  0  0  0  0  0  0  0  0  0  0
    1.1996    0.2753    0.0310 H   0  0  0  0  0  0  0  0  0  0  0  0
   -0.8501    1.8670    1.0494 H   0  0  0  0  0  0  0  0  0  0  0  0
    0.7432    1.7035    1.8573 H   0  0  0  0  0  0  0  0  0  0  0  0
    0.7816    3.6735    0.2566 H   0  0  0  0  0  0  0  0  0  0  0  0
    2.0424    2.5277   -0.1279 H   0  0  0  0  0  0  0  0  0  0  0  0
    0.9048    3.2068   -2.2318 H   0  0  0  0  0  0  0  0  0  0  0  0
    0.8376    1.4962   -2.0109 H   0  0  0  0  0  0  0  0  0  0  0  0
   -1.4578    2.2353   -2.6125 H   0  0  0  0  0  0  0  0  0  0  0  0
   -1.5284    1.5956   -1.0361 H   0  0  0  0  0  0  0  0  0  0  0  0
   -2.6981    3.7114   -0.8824 H   0  0  0  0  0  0  0  0  0  0  0  0
   -1.3053    3.8675    0.0846 H   0  0  0  0  0  0  0  0  0  0  0  0
   -1.3745    5.8817   -1.3204 H   0  0  0  0  0  0  0  0  0  0  0  0
    0.0263    5.0185   -1.7783 H   0  0  0  0  0  0  0  0  0  0  0  0
   -1.1451    5.6046   -3.8713 H   0  0  0  0  0  0  0  0  0  0  0  0
   -1.1733    3.9009   -3.7573 H   0  0  0  0  0  0  0  0  0  0  0  0
   -3.4496    4.5918   -4.2952 H   0  0  0  0  0  0  0  0  0  0  0  0
   -3.5338    3.9046   -2.7350 H   0  0  0  0  0  0  0  0  0  0  0  0
   -4.7696    6.0415   -2.6340 H   0  0  0  0  0  0  0  0  0  0  0  0
   -3.3952    6.1966   -1.5932 H   0  0  0  0  0  0  0  0  0  0  0  0
   -3.5742    8.2324   -2.9962 H   0  0  0  0  0  0  0  0  0  0  0  0
   -2.0718    7.4127   -3.4118 H   0  0  0  0  0  0  0  0  0  0  0  0
   -3.2577    8.0670   -5.5014 H   0  0  0  0  0  0  0  0  0  0  0  0
   -3.2046    6.3185   -5.4348 H   0  0  0  0  0  0  0  0  0  0  0  0
   -5.5458    9.2596   -4.9027 H   0  0  0  0  0  0  0  0  0  0  0  0
   -8.0800    8.4128   -4.8830 H   0  0  0  0  0  0  0  0  0  0  0  0
   -5.5622    5.0456   -4.9271 H   0  0  0  0  0  0  0  0  0  0  0  0
   -8.3358    4.9137   -5.7733 H   0  0  0  0  0  0  0  0  0  0  0  0
   -8.3184    4.9435   -3.9604 H   0  0  0  0  0  0  0  0  0  0  0  0
   -9.2788    6.1695   -4.8771 H   0  0  0  0  0  0  0  0  0  0  0  0
  1  2  1  0  0  0  0
  1 26  1  0  0  0  0
  1 27  1  0  0  0  0
  1 28  1  0  0  0  0
  2  3  1  0  0  0  0
  2 29  1  0  0  0  0
  2 30  1  0  0  0  0
  3  4  1  0  0  0  0
  3 31  1  0  0  0  0
  3 32  1  0  0  0  0
  4  5  1  0  0  0  0
  4 33  1  0  0  0  0
  4 34  1  0  0  0  0
  5  6  1  0  0  0  0
  5 35  1  0  0  0  0
  5 36  1  0  0  0  0
  6  7  1  0  0  0  0
  6 37  1  0  0  0  0
  6 38  1  0  0  0  0
  7  8  1  0  0  0  0
  7 39  1  0  0  0  0
  7 40  1  0  0  0  0
  8  9  1  0  0  0  0
  8 41  1  0  0  0  0
  8 42  1  0  0  0  0
  9 10  1  0  0  0  0
  9 43  1  0  0  0  0
  9 44  1  0  0  0  0
 10 11  1  0  0  0  0
 10 45  1  0  0  0  0
 10 46  1  0  0  0  0
 11 12  1  0  0  0  0
 11 47  1  0  0  0  0
 11 48  1  0  0  0  0
 12 13  1  0  0  0  0
 12 49  1  0  0  0  0
 12 50  1  0  0  0  0
 13 14  1  0  0  0  0
 13 17  1  0  0  0  0
 14 15  2  0  0  0  0
 14 51  1  0  0  0  0
 15 16  1  0  0  0  0
 15 52  1  0  0  0  0
 16 17  2  0  0  0  0
 16 18  1  0  0  0  0
 17 53  1  0  0  0  0
 18 54  1  0  0  0  0
 18 55  1  0  0  0  0
 18 56  1  0  0  0  0
 19 20  1  0  0  0  0
 20 21  1  0  0  0  0
 20 22  1  0  0  0  0
 20 23  1  0  0  0  0
 20 24  1  0  0  0  0
 20 25  1  0  0  0  0
M  CHG  2  16   1  20  -1
M  END
$$$$

 OpenBabel05152416213D

 16 17  0  0  0  0  0  0  0  0999 V2000
   -2.2733   -0.0394    0.0015 C   0  0  0  0  0  0  0  0  0  0  0  0
   -1.4942   -1.1534    0.0018 N   0  0  0  0  0  0  0  0  0  0  0  0
   -0.2445   -0.6577    0.0002 C   0  0  0  0  0  0  0  0  0  0  0  0
   -0.2712    0.6969   -0.0008 C   0  0  0  0  0  0  0  0  0  0  0  0
   -1.5496    1.1072    0.0000 N   0  0  0  0  0  0  0  0  0  0  0  0
    0.9212    1.4179   -0.0029 C   0  0  0  0  0  0  0  0  0  0  0  0
    0.9464    2.8519   -0.0043 S   0  0  0  0  0  0  0  0  0  0  0  0
    2.0882    0.7086   -0.0044 N   0  0  0  0  0  0  0  0  0  0  0  0
    2.0971   -0.6652   -0.0038 C   0  0  0  0  0  0  0  0  0  0  0  0
    0.9150   -1.3609   -0.0011 N   0  0  0  0  0  0  0  0  0  0  0  0
    3.3318   -1.3560   -0.0072 N   0  0  0  0  0  0  0  0  0  0  0  0
   -3.3556   -0.0641    0.0022 H   0  0  0  0  0  0  0  0  0  0  0  0
   -1.9155    2.0854   -0.0006 H   0  0  0  0  0  0  0  0  0  0  0  0
    0.9028   -2.4058   -0.0007 H   0  0  0  0  0  0  0  0  0  0  0  0
    3.3594   -2.3860   -0.0094 H   0  0  0  0  0  0  0  0  0  0  0  0
    4.2205   -0.8342   -0.0098 H   0  0  0  0  0  0  0  0  0  0  0  0
  1  2  2  0  0  0  0
  1  5  1  0  0  0  0
  1 12  1  0  0  0  0
  2  3  1  0  0  0  0
  3  4  2  0  0  0  0
  3 10  1  0  0  0  0
  4  5  1  0  0  0  0
  4  6  1  0  0  0  0
  5 13  1  0  0  0  0
  6  7  2  0  0  0  0
  6  8  1  0  0  0  0
  8  9  2  0  0  0  0
  9 10  1  0  0  0  0
  9 11  1  0  0  0  0
 10 14  1  0  0  0  0
 11 15  1  0  0  0  0
 11 16  1  0  0  0  0
M  END
$$$$

 OpenBabel05152416213D

 47 49  0  0  0  0  0  0  0  0999 V2000
   -2.4262   -0.8071    0.0800 C   0  0  0  0  0  0  0  0  0  0  0  0
   -1.3787   -1.7281    0.1426 C   0  0  0  0  0  0  0  0  0  0  0  0
   -0.3978   -1.0357    0.1762 C   0  0  0  0  0  0  0  0  0  0  0  0
   -0.7663    1.1386   -0.0923 C   0  0  0  0  0  0  0  0  0  0  0  0
   -1.6629    1.6741   -0.0504 C   0  0  0  0  0  0  0  0  0  0  0  0
   -2.5237    0.6942    0.0390 C   0  0  0  0  0  0  0  0  0  0  0  0
   -1.3871    3.4192   -0.1019 Cl  0  0  0  0  0  0  0  0  0  0  0  0
    1.3052    2.3570   -0.2962 S   0  0  0  0  0  0  0  0  0  0  0  0
    2.8031    0.6068   -0.0711 C   0  0  0  0  0  0  0  0  0  0  0  0
    1.6621   -1.4339    0.1608 C   0  0  0  0  0  0  0  0  0  0  0  0
    1.9519   -2.7555    0.0849 C   0  0  0  0  0  0  0  0  0  0  0  0
    1.6231   -3.3305    1.3252 O   0  0  0  0  0  0  0  0  0  0  0  0
    2.1873   -2.5822    2.4405 C   0  0  0  0  0  0  0  0  0  0  0  0
    3.7377   -2.6028    2.3073 C   0  0  0  0  0  0  0  0  0  0  0  0
    4.4501   -1.8559    1.1521 N   0  0  0  0  0  0  0  0  0  0  0  0
    4.6904   -0.5615    0.8631 C   0  0  0  0  0  0  0  0  0  0  0  0
    5.0432   -0.4396   -0.4961 C   0  0  0  0  0  0  0  0  0  0  0  0
    5.1224   -1.6253   -1.0206 N   0  0  0  0  0  0  0  0  0  0  0  0
    4.9384   -2.4518    0.0288 C   0  0  0  0  0  0  0  0  0  0  0  0
    1.6842   -1.1309    2.7640 C   0  0  0  0  0  0  0  0  0  0  0  0
    2.6038   -0.0000    2.9002 C   0  0  0  0  0  0  0  0  0  0  0  0
    2.0328    1.2901    2.6271 C   0  0  0  0  0  0  0  0  0  0  0  0
    0.6783    1.5263    2.8609 C   0  0  0  0  0  0  0  0  0  0  0  0
   -0.1426    0.4467    3.1919 C   0  0  0  0  0  0  0  0  0  0  0  0
    0.2876   -0.8658    2.8961 C   0  0  0  0  0  0  0  0  0  0  0  0
    0.0345    3.1784    2.7137 Cl  0  0  0  0  0  0  0  0  0  0  0  0
    4.4222   -0.0686    3.5404 Cl  0  0  0  0  0  0  0  0  0  0  0  0
    0.9504    0.1650   -1.0895 N   0  3  0  0  0  0  0  0  0  0  0  0
    0.9701    0.3944    0.5318 O   0  0  0  0  0  0  0  0  0  0  0  0
   -0.0140   -0.2008   -1.9503 O   0  0  0  0  0  0  0  0  0  0  0  0
    1.9382   -0.3932   -1.8643 O   0  5  0  0  0  0  0  0  0  0  0  0
   -3.2782   -1.2868    0.0109 H   0  0  0  0  0  0  0  0  0  0  0  0
   -1.1689   -2.7841    0.1034 H   0  0  0  0  0  0  0  0  0  0  0  0
   -3.3620    1.1646    0.0260 H   0  0  0  0  0  0  0  0  0  0  0  0
    3.5352    1.0732   -0.1683 H   0  0  0  0  0  0  0  0  0  0  0  0
    1.5873   -3.1373   -0.8847 H   0  0  0  0  0  0  0  0  0  0  0  0
    2.8541   -2.7081   -0.2097 H   0  0  0  0  0  0  0  0  0  0  0  0
    1.8014   -3.1203    3.3104 H   0  0  0  0  0  0  0  0  0  0  0  0
    3.9851   -2.3290    3.3070 H   0  0  0  0  0  0  0  0  0  0  0  0
    4.0257   -3.6365    2.2818 H   0  0  0  0  0  0  0  0  0  0  0  0
    4.4225    0.4090    1.3786 H   0  0  0  0  0  0  0  0  0  0  0  0
    5.0015    0.5097   -1.0979 H   0  0  0  0  0  0  0  0  0  0  0  0
    4.9102   -3.4828   -0.1274 H   0  0  0  0  0  0  0  0  0  0  0  0
    2.5971    2.1330    2.2120 H   0  0  0  0  0  0  0  0  0  0  0  0
   -1.1297    0.6360    3.5491 H   0  0  0  0  0  0  0  0  0  0  0  0
   -0.4813   -1.6495    2.7532 H   0  0  0  0  0  0  0  0  0  0  0  0
   -0.9444   -0.2600   -1.8440 H   0  0  0  0  0  0  0  0  0  0  0  0
  1  2  2  0  0  0  0
  1  6  1  0  0  0  0
  1 32  1  0  0  0  0
  2  3  1  0  0  0  0
  2 33  1  0  0  0  0
  3  4  2  0  0  0  0
  3 10  1  0  0  0  0
  4  5  1  0  0  0  0
  4  8  1  0  0  0  0
  5  6  2  0  0  0  0
  5  7  1  0  0  0  0
  6 34  1  0  0  0  0
  8  9  1  0  0  0  0
  9 10  2  0  0  0  0
  9 35  1  0  0  0  0
 10 11  1  0  0  0  0
 11 12  1  0  0  0  0
 11 36  1  0  0  0  0
 11 37  1  0  0  0  0
 12 13  1  0  0  0  0
 13 14  1  0  0  0  0
 13 20  1  0  0  0  0
 13 38  1  0  0  0  0
 14 15  1  0  0  0  0
 14 39  1  0  0  0  0
 14 40  1  0  0  0  0
 15 16  1  0  0  0  0
 15 19  1  0  0  0  0
 16 17  2  0  0  0  0
 16 41  1  0  0  0  0
 17 18  1  0  0  0  0
 17 42  1  0  0  0  0
 18 19  2  0  0  0  0
 19 43  1  0  0  0  0
 20 21  2  0  0  0  0
 20 25  1  0  0  0  0
 21 22  1  0  0  0  0
 21 27  1  0  0  0  0
 22 23  2  0  0  0  0
 22 44  1  0  0  0  0
 23 24  1  0  0  0  0
 23 26  1  0  0  0  0
 24 25  2  0  0  0  0
 24 45  1  0  0  0  0
 25 46  1  0  0  0  0
 28 29  2  0  0  0  0
 28 30  1  0  0  0  0
 28 31  1  0  0  0  0
 30 47  1  0  0  0  0
M  CHG  2  28   1  31  -1
M  END
$$$$

 OpenBabel05152416213D

 63 66  0  0  0  0  0  0  0  0999 V2000
   -1.4281   -0.2205    0.2450 C   0  0  0  0  0  0  0  0  0  0  0  0
   -0.6345    1.6843    1.1957 C   0  0  0  0  0  0  0  0  0  0  0  0
    1.5125    1.9207    0.5279 C   0  0  0  0  0  0  0  0  0  0  0  0
    2.0513   -0.5906    0.6997 N   0  0  0  0  0  0  0  0  0  0  0  0
    0.8416   -2.0839    0.2851 C   0  0  0  0  0  0  0  0  0  0  0  0
   -0.8064   -1.6572    0.4477 C   0  0  0  0  0  0  0  0  0  0  0  0
    3.2264   -0.2808   -0.0894 C   0  0  0  0  0  0  0  0  0  0  0  0
    3.0716    0.0199   -1.8446 C   0  0  0  0  0  0  0  0  0  0  0  0
    2.1358    1.1200   -2.5300 O   0  0  0  0  0  0  0  0  0  0  0  0
    0.6680    1.6512   -2.4045 C   0  0  0  0  0  0  0  0  0  0  0  0
   -0.1480    1.9758   -3.3645 C   0  0  0  0  0  0  0  0  0  0  0  0
   -1.4071    2.4305   -2.9758 C   0  0  0  0  0  0  0  0  0  0  0  0
   -2.0311    2.1851   -1.6680 C   0  0  0  0  0  0  0  0  0  0  0  0
   -1.5670    1.8253   -0.8912 C   0  0  0  0  0  0  0  0  0  0  0  0
   -0.1917    1.5963   -1.0024 C   0  0  0  0  0  0  0  0  0  0  0  0
   -3.1811    2.7159   -1.2264 C   0  0  0  0  0  0  0  0  0  0  0  0
   -3.3522    3.2276   -2.0421 O   0  0  0  0  0  0  0  0  0  0  0  0
   -4.3719    3.1507   -0.5244 C   0  0  0  0  0  0  0  0  0  0  0  0
   -5.2242    2.3812    0.4262 C   0  0  0  0  0  0  0  0  0  0  0  0
   -6.5769    2.5000   -0.4527 S   0  0  0  0  0  0  0  0  0  0  0  0
   -6.1601    2.9547   -2.1007 C   0  0  0  0  0  0  0  0  0  0  0  0
   -5.3797    3.9290   -1.9353 C   0  0  0  0  0  0  0  0  0  0  0  0
   -5.2752    4.4868   -3.6324 C   0  0  0  0  0  0  0  0  0  0  0  0
   -4.6317    3.6129   -4.5771 C   0  0  0  0  0  0  0  0  0  0  0  0
   -4.4769    2.3624   -4.0627 C   0  0  0  0  0  0  0  0  0  0  0  0
   -5.2722    2.0305   -2.8808 C   0  0  0  0  0  0  0  0  0  0  0  0
   -3.6035    1.4716   -4.5986 O   0  0  0  0  0  0  0  0  0  0  0  0
   -5.6002    1.9932    2.0194 C   0  0  0  0  0  0  0  0  0  0  0  0
   -6.8806    1.3909    2.3209 C   0  0  0  0  0  0  0  0  0  0  0  0
   -7.4611    1.4148    3.6192 C   0  0  0  0  0  0  0  0  0  0  0  0
   -6.7276    1.8018    4.7281 C   0  0  0  0  0  0  0  0  0  0  0  0
   -5.4616    2.3198    4.5030 C   0  0  0  0  0  0  0  0  0  0  0  0
   -4.9147    2.4072    3.1930 C   0  0  0  0  0  0  0  0  0  0  0  0
   -7.2202    1.6362    5.9859 O   0  0  0  0  0  0  0  0  0  0  0  0
    0.6862   -0.4784   -1.3401 Cl  0  0  0  0  0  0  0  0  0  0  0  0
   -2.5772   -0.1656    0.3496 H   0  0  0  0  0  0  0  0  0  0  0  0
   -1.7209   -0.3677   -1.0455 H   0  0  0  0  0  0  0  0  0  0  0  0
   -0.8311    2.7728    0.8433 H   0  0  0  0  0  0  0  0  0  0  0  0
   -0.5268    1.2798    2.0157 H   0  0  0  0  0  0  0  0  0  0  0  0
    1.7575    2.0405   -0.5322 H   0  0  0  0  0  0  0  0  0  0  0  0
    1.6590    2.7067   -0.1242 H   0  0  0  0  0  0  0  0  0  0  0  0
    1.6430   -2.4637    0.1121 H   0  0  0  0  0  0  0  0  0  0  0  0
    0.7072   -2.4673   -1.2602 H   0  0  0  0  0  0  0  0  0  0  0  0
   -0.8088   -1.4025    1.4527 H   0  0  0  0  0  0  0  0  0  0  0  0
   -1.4048   -2.2555   -0.2349 H   0  0  0  0  0  0  0  0  0  0  0  0
    3.4173    0.8009    0.2370 H   0  0  0  0  0  0  0  0  0  0  0  0
    3.5418   -1.2055    0.1682 H   0  0  0  0  0  0  0  0  0  0  0  0
    4.0311   -0.0278   -2.1863 H   0  0  0  0  0  0  0  0  0  0  0  0
    2.5820   -0.9597   -2.2246 H   0  0  0  0  0  0  0  0  0  0  0  0
    0.3139    1.8939   -4.2329 H   0  0  0  0  0  0  0  0  0  0  0  0
   -2.0129    2.9839   -3.5120 H   0  0  0  0  0  0  0  0  0  0  0  0
   -2.3231    1.7176    0.2726 H   0  0  0  0  0  0  0  0  0  0  0  0
    0.7323    0.3202    1.0489 H   0  0  0  0  0  0  0  0  0  0  0  0
   -5.9393    5.1695   -4.4474 H   0  0  0  0  0  0  0  0  0  0  0  0
   -4.3257    3.8147   -5.6462 H   0  0  0  0  0  0  0  0  0  0  0  0
   -4.7463    1.2454   -2.3214 H   0  0  0  0  0  0  0  0  0  0  0  0
   -3.3949    0.6401   -4.1352 H   0  0  0  0  0  0  0  0  0  0  0  0
   -7.4461    0.9290    1.5201 H   0  0  0  0  0  0  0  0  0  0  0  0
   -8.4884    1.1495    3.7697 H   0  0  0  0  0  0  0  0  0  0  0  0
   -4.9066    2.7007    5.3355 H   0  0  0  0  0  0  0  0  0  0  0  0
   -3.9521    2.8132    3.0773 H   0  0  0  0  0  0  0  0  0  0  0  0
   -6.6936    1.8169    6.7844 H   0  0  0  0  0  0  0  0  0  0  0  0
    1.2896    0.1988   -0.7829 H   0  0  0  0  0  0  0  0  0  0  0  0
  1  2  1  0  0  0  0
  1  6  1  0  0  0  0
  1 36  1  0  0  0  0
  1 37  1  0  0  0  0
  2  3  1  0  0  0  0
  2 38  1  0  0  0  0
  2 39  1  0  0  0  0
  3  4  1  0  0  0  0
  3 40  1  0  0  0  0
  3 41  1  0  0  0  0
  4  5  1  0  0  0  0
  4  7  1  0  0  0  0
  5  6  1  0  0  0  0
  5 42  1  0  0  0  0
  5 43  1  0  0  0  0
  6 44  1  0  0  0  0
  6 45  1  0  0  0  0
  7  8  1  0  0  0  0
  7 46  1  0  0  0  0
  7 47  1  0  0  0  0
  8  9  1  0  0  0  0
  8 48  1  0  0  0  0
  8 49  1  0  0  0  0
  9 10  1  0  0  0  0
 10 11  2  0  0  0  0
 10 15  1  0  0  0  0
 11 12  1  0  0  0  0
 11 50  1  0  0  0  0
 12 13  2  0  0  0  0
 12 51  1  0  0  0  0
 13 14  1  0  0  0  0
 13 16  1  0  0  0  0
 14 15  2  0  0  0  0
 14 52  1  0  0  0  0
 15 53  1  0  0  0  0
 16 17  2  0  0  0  0
 16 18  1  0  0  0  0
 18 19  2  0  0  0  0
 18 22  1  0  0  0  0
 19 20  1  0  0  0  0
 19 28  1  0  0  0  0
 20 21  1  0  0  0  0
 21 22  2  0  0  0  0
 21 26  1  0  0  0  0
 22 23  1  0  0  0  0
 23 24  2  0  0  0  0
 23 54  1  0  0  0  0
 24 25  1  0  0  0  0
 24 55  1  0  0  0  0
 25 26  2  0  0  0  0
 25 27  1  0  0  0  0
 26 56  1  0  0  0  0
 27 57  1  0  0  0  0
 28 29  2  0  0  0  0
 28 33  1  0  0  0  0
 29 30  1  0  0  0  0
 29 58  1  0  0  0  0
 30 31  2  0  0  0  0
 30 59  1  0  0  0  0
 31 32  1  0  0  0  0
 31 34  1  0  0  0  0
 32 33  2  0  0  0  0
 32 60  1  0  0  0  0
 33 61  1  0  0  0  0
 34 62  1  0  0  0  0
 35 63  1  0  0  0  0
M  END
$$$$

 OpenBabel05152416213D

 29 29  0  0  0  0  0  0  0  0999 V2000
    1.1307    0.0701    0.0805 C   0  0  0  0  0  0  0  0  0  0  0  0
    0.5149    0.9663   -0.9046 N   0  0  0  0  0  0  0  0  0  0  0  0
   -0.9277    0.7028   -0.8636 C   0  0  0  0  0  0  0  0  0  0  0  0
    0.9402    2.6947   -0.5443 S   0  0  0  0  0  0  0  0  0  0  0  0
    0.4968    3.0770    0.8756 O   0  0  0  0  0  0  0  0  0  0  0  0
    2.4766    2.7519   -0.4616 O   0  0  0  0  0  0  0  0  0  0  0  0
    0.4657    3.9866   -1.7004 N   0  0  0  0  0  0  0  0  0  0  0  0
   -0.3981    3.6670   -2.7751 C   0  0  0  0  0  0  0  0  0  0  0  0
   -0.0622    3.9361   -4.1173 C   0  0  0  0  0  0  0  0  0  0  0  0
   -0.9433    3.5818   -5.1427 C   0  0  0  0  0  0  0  0  0  0  0  0
   -2.1164    2.8848   -4.8513 C   0  0  0  0  0  0  0  0  0  0  0  0
   -2.4477    2.6140   -3.5232 C   0  0  0  0  0  0  0  0  0  0  0  0
   -1.6150    3.0639   -2.5055 C   0  0  0  0  0  0  0  0  0  0  0  0
    1.1643    5.6100   -1.4599 S   0  0  0  0  0  0  0  0  0  0  0  0
    0.1886    6.6889   -2.6203 C   0  0  0  0  0  0  0  0  0  0  0  0
    0.6384    6.5555   -3.9146 F   0  0  0  0  0  0  0  0  0  0  0  0
   -1.5841    6.4740   -2.5260 Cl  0  0  0  0  0  0  0  0  0  0  0  0
    0.5082    8.3837   -2.2065 Cl  0  0  0  0  0  0  0  0  0  0  0  0
    0.8623   -0.9859   -0.1610 H   0  0  0  0  0  0  0  0  0  0  0  0
    0.7579    0.2952    1.1051 H   0  0  0  0  0  0  0  0  0  0  0  0
    2.2326    0.1329    0.0393 H   0  0  0  0  0  0  0  0  0  0  0  0
   -1.4224    1.2715   -0.0416 H   0  0  0  0  0  0  0  0  0  0  0  0
   -1.3397    0.8327   -1.8657 H   0  0  0  0  0  0  0  0  0  0  0  0
   -1.1738   -0.3695   -0.7489 H   0  0  0  0  0  0  0  0  0  0  0  0
    0.8782    4.3930   -4.3676 H   0  0  0  0  0  0  0  0  0  0  0  0
   -0.7002    3.8215   -6.1698 H   0  0  0  0  0  0  0  0  0  0  0  0
   -2.7723    2.5543   -5.6425 H   0  0  0  0  0  0  0  0  0  0  0  0
   -3.3424    2.0588   -3.2805 H   0  0  0  0  0  0  0  0  0  0  0  0
   -1.9022    2.9099   -1.4748 H   0  0  0  0  0  0  0  0  0  0  0  0
  1  2  1  0  0  0  0
  1 19  1  0  0  0  0
  1 20  1  0  0  0  0
  1 21  1  0  0  0  0
  2  3  1  0  0  0  0
  2  4  1  0  0  0  0
  3 22  1  0  0  0  0
  3 23  1  0  0  0  0
  3 24  1  0  0  0  0
  4  5  2  0  0  0  0
  4  6  2  0  0  0  0
  4  7  1  0  0  0  0
  7  8  1  0  0  0  0
  7 14  1  0  0  0  0
  8  9  2  0  0  0  0
  8 13  1  0  0  0  0
  9 10  1  0  0  0  0
  9 25  1  0  0  0  0
 10 11  2  0  0  0  0
 10 26  1  0  0  0  0
 11 12  1  0  0  0  0
 11 27  1  0  0  0  0
 12 13  2  0  0  0  0
 12 28  1  0  0  0  0
 13 29  1  0  0  0  0
 14 15  1  0  0  0  0
 15 16  1  0  0  0  0
 15 17  1  0  0  0  0
 15 18  1  0  0  0  0
M  END
$$$$

 OpenBabel05152416213D

 37 39  0  0  0  0  0  0  0  0999 V2000
    0.8317   -0.0041   -0.0723 C   0  0  0  0  0  0  0  0  0  0  0  0
    0.4509   -1.0205   -0.9163 O   0  0  0  0  0  0  0  0  0  0  0  0
    0.8183   -1.1523   -2.2038 C   0  0  0  0  0  0  0  0  0  0  0  0
   -0.1412   -1.4697   -3.1917 C   0  0  0  0  0  0  0  0  0  0  0  0
    0.2631   -1.7320   -4.5110 C   0  0  0  0  0  0  0  0  0  0  0  0
    1.5299   -1.5497   -4.9022 C   0  0  0  0  0  0  0  0  0  0  0  0
    2.3948   -1.4036   -3.9018 C   0  0  0  0  0  0  0  0  0  0  0  0
    2.1439   -1.0814   -2.5911 C   0  0  0  0  0  0  0  0  0  0  0  0
    3.2232   -0.5770   -1.7593 N   0  0  0  0  0  0  0  0  0  0  0  0
    4.4860   -0.1987   -2.0887 C   0  0  0  0  0  0  0  0  0  0  0  0
    5.2682    0.1717   -1.2119 O   0  0  0  0  0  0  0  0  0  0  0  0
    4.9506   -0.2358   -3.4480 C   0  0  0  0  0  0  0  0  0  0  0  0
    6.0215   -1.0141   -3.6853 C   0  0  0  0  0  0  0  0  0  0  0  0
    6.4993   -0.9903   -4.8618 C   0  0  0  0  0  0  0  0  0  0  0  0
    7.7139   -1.2268   -4.9494 C   0  0  0  0  0  0  0  0  0  0  0  0
    8.5963   -1.8178   -4.6398 C   0  0  0  0  0  0  0  0  0  0  0  0
    8.9929   -2.1508   -5.7768 C   0  0  0  0  0  0  0  0  0  0  0  0
    6.8343   -1.3690   -7.0775 C   0  0  0  0  0  0  0  0  0  0  0  0
    5.9132   -0.7069   -6.0084 C   0  0  0  0  0  0  0  0  0  0  0  0
    4.6299    0.0506   -5.8621 C   0  0  0  0  0  0  0  0  0  0  0  0
    4.2375    0.3831   -4.5232 C   0  0  0  0  0  0  0  0  0  0  0  0
    3.0425    0.9951   -4.2643 O   0  0  0  0  0  0  0  0  0  0  0  0
    0.5405   -0.1710    0.9448 H   0  0  0  0  0  0  0  0  0  0  0  0
    0.5834    0.9516   -0.5000 H   0  0  0  0  0  0  0  0  0  0  0  0
    1.8024    0.1169    0.2327 H   0  0  0  0  0  0  0  0  0  0  0  0
   -1.1845   -1.5032   -2.9608 H   0  0  0  0  0  0  0  0  0  0  0  0
   -0.3661   -2.1461   -5.2422 H   0  0  0  0  0  0  0  0  0  0  0  0
    1.8671   -1.5768   -5.9456 H   0  0  0  0  0  0  0  0  0  0  0  0
    3.3000   -1.5113   -4.2155 H   0  0  0  0  0  0  0  0  0  0  0  0
    3.1372   -0.4532   -0.8083 H   0  0  0  0  0  0  0  0  0  0  0  0
    6.5693   -1.5754   -2.9438 H   0  0  0  0  0  0  0  0  0  0  0  0
    8.2635   -0.4377   -6.1799 H   0  0  0  0  0  0  0  0  0  0  0  0
    8.6503   -1.7947   -3.3797 H   0  0  0  0  0  0  0  0  0  0  0  0
   10.3110   -2.1639   -5.6509 H   0  0  0  0  0  0  0  0  0  0  0  0
    6.0819   -0.9050   -8.1818 H   0  0  0  0  0  0  0  0  0  0  0  0
    3.9398    0.3967   -6.6209 H   0  0  0  0  0  0  0  0  0  0  0  0
    2.6086    0.9931   -3.3870 H   0  0  0  0  0  0  0  0  0  0  0  0
  1  2  1  0  0  0  0
  1 23  1  0  0  0  0
  1 24  1  0  0  0  0
  1 25  1  0  0  0  0
  2  3  1  0  0  0  0
  3  4  2  0  0  0  0
  3  8  1  0  0  0  0
  4  5  1  0  0  0  0
  4 26  1  0  0  0  0
  5  6  2  0  0  0  0
  5 27  1  0  0  0  0
  6  7  1  0  0  0  0
  6 28  1  0  0  0  0
  7  8  2  0  0  0  0
  7 29  1  0  0  0  0
  8  9  1  0  0  0  0
  9 10  1  0  0  0  0
  9 30  1  0  0  0  0
 10 11  2  0  0  0  0
 10 12  1  0  0  0  0
 12 13  2  0  0  0  0
 12 21  1  0  0  0  0
 13 14  1  0  0  0  0
 13 31  1  0  0  0  0
 14 15  2  0  0  0  0
 14 19  1  0  0  0  0
 15 16  1  0  0  0  0
 15 32  1  0  0  0  0
 16 17  2  0  0  0  0
 16 33  1  0  0  0  0
 17 18  1  0  0  0  0
 17 34  1  0  0  0  0
 18 19  2  0  0  0  0
 18 35  1  0  0  0  0
 19 20  1  0  0  0  0
 20 21  2  0  0  0  0
 20 36  1  0  0  0  0
 21 22  1  0  0  0  0
 22 37  1  0  0  0  0
M  END
$$$$

 OpenBabel05152416213D

 30 32  0  0  1  0  0  0  0  0999 V2000
   -0.9211   -1.0483   -0.1880 C   0  0  0  0  0  0  0  0  0  0  0  0
   -1.2268    0.3165    0.4240 C   0  0  2  0  0  0  0  0  0  0  0  0
   -0.0635    1.5341   -0.2509 S   0  0  0  0  0  0  0  0  0  0  0  0
    1.2723    0.3719   -0.0275 C   0  0  0  0  0  0  0  0  0  0  0  0
    2.5169    0.8034    0.2760 C   0  0  0  0  0  0  0  0  0  0  0  0
    2.8464    2.2869    0.2431 C   0  0  0  0  0  0  0  0  0  0  0  0
    3.1198    3.5175    0.2158 N   0  0  0  0  0  0  0  0  0  0  0  0
    3.6125   -0.1140    0.4828 N   0  0  0  0  0  0  0  0  0  0  0  0
    3.9242   -1.2281   -0.2166 C   0  0  0  0  0  0  0  0  0  0  0  0
    5.0452   -1.7845    0.3519 C   0  0  0  0  0  0  0  0  0  0  0  0
    5.4365   -1.0316    1.3992 N   0  0  0  0  0  0  0  0  0  0  0  0
    4.5485   -0.0170    1.4415 C   0  0  0  0  0  0  0  0  0  0  0  0
    0.8496   -1.3885   -0.1428 S   0  0  0  0  0  0  0  0  0  0  0  0
   -1.3874    0.3880    1.9602 C   0  0  0  0  0  0  0  0  0  0  0  0
   -0.4240    0.0645    2.9812 C   0  0  0  0  0  0  0  0  0  0  0  0
   -0.7560    0.2135    4.3311 C   0  0  0  0  0  0  0  0  0  0  0  0
   -2.0081    0.6661    4.7174 C   0  0  0  0  0  0  0  0  0  0  0  0
   -2.9569    0.9753    3.7527 C   0  0  0  0  0  0  0  0  0  0  0  0
   -2.6534    0.8389    2.4001 C   0  0  0  0  0  0  0  0  0  0  0  0
   -2.3826    0.8397    6.4200 Cl  0  0  0  0  0  0  0  0  0  0  0  0
    1.2062   -0.5451    2.7876 Cl  0  0  0  0  0  0  0  0  0  0  0  0
   -1.1779   -1.0251   -1.2710 H   0  0  0  0  0  0  0  0  0  0  0  0
   -1.5171   -1.8426    0.3065 H   0  0  0  0  0  0  0  0  0  0  0  0
   -2.2030    0.5839   -0.0364 H   0  0  0  0  0  0  0  0  0  0  0  0
    3.3993   -1.5964   -1.0846 H   0  0  0  0  0  0  0  0  0  0  0  0
    5.5511   -2.6816    0.0187 H   0  0  0  0  0  0  0  0  0  0  0  0
    4.5689    0.7625    2.1950 H   0  0  0  0  0  0  0  0  0  0  0  0
   -0.0257   -0.0290    5.0949 H   0  0  0  0  0  0  0  0  0  0  0  0
   -3.9354    1.3260    4.0483 H   0  0  0  0  0  0  0  0  0  0  0  0
   -3.4284    1.0986    1.6904 H   0  0  0  0  0  0  0  0  0  0  0  0
  1  2  1  0  0  0  0
  1 13  1  0  0  0  0
  1 22  1  0  0  0  0
  1 23  1  0  0  0  0
  2  3  1  0  0  0  0
  2 24  1  6  0  0  0
  2 14  1  0  0  0  0
  3  4  1  0  0  0  0
  4  5  2  0  0  0  0
  4 13  1  0  0  0  0
  5  6  1  0  0  0  0
  5  8  1  0  0  0  0
  6  7  3  0  0  0  0
  8  9  1  0  0  0  0
  8 12  1  0  0  0  0
  9 10  2  0  0  0  0
  9 25  1  0  0  0  0
 10 11  1  0  0  0  0
 10 26  1  0  0  0  0
 11 12  2  0  0  0  0
 12 27  1  0  0  0  0
 14 15  2  0  0  0  0
 14 19  1  0  0  0  0
 15 16  1  0  0  0  0
 15 21  1  0  0  0  0
 16 17  2  0  0  0  0
 16 28  1  0  0  0  0
 17 18  1  0  0  0  0
 17 20  1  0  0  0  0
 18 19  2  0  0  0  0
 18 29  1  0  0  0  0
 19 30  1  0  0  0  0
M  END
$$$$

 OpenBabel05152416213D

 53 54  0  0  1  0  0  0  0  0999 V2000
    0.3149   -0.0699   -0.6838 B   0  0  0  0  0  0  0  0  0  0  0  0
   -0.5777   -1.0120    0.4230 C   0  0  1  0  0  0  0  0  0  0  0  0
   -1.3661   -0.3896    1.6798 C   0  0  0  0  0  0  0  0  0  0  0  0
   -2.2579    0.6538    1.1854 C   0  0  0  0  0  0  0  0  0  0  0  0
   -3.2067   -0.0531    0.2230 C   0  0  0  0  0  0  0  0  0  0  0  0
   -2.9394    1.3322    2.3454 C   0  0  0  0  0  0  0  0  0  0  0  0
   -0.9860   -2.2373   -0.2346 N   0  0  0  0  0  0  0  0  0  0  0  0
   -0.4431   -3.5082   -0.1196 C   0  0  0  0  0  0  0  0  0  0  0  0
   -0.9676   -4.3492   -0.8514 O   0  0  0  0  0  0  0  0  0  0  0  0
    0.7251   -4.0826    0.7950 C   0  0  1  0  0  0  0  0  0  0  0  0
    2.2908   -3.6373    0.5374 C   0  0  0  0  0  0  0  0  0  0  0  0
    2.8215   -2.1782    0.9400 C   0  0  0  0  0  0  0  0  0  0  0  0
    1.9314   -1.4168    1.5541 C   0  0  0  0  0  0  0  0  0  0  0  0
    1.9183   -0.0392    1.7151 C   0  0  0  0  0  0  0  0  0  0  0  0
    2.9967    0.6670    1.3753 C   0  0  0  0  0  0  0  0  0  0  0  0
    4.1200   -0.0571    0.9690 C   0  0  0  0  0  0  0  0  0  0  0  0
    4.0425   -1.4892    0.7298 C   0  0  0  0  0  0  0  0  0  0  0  0
    0.3465   -4.0730    2.2572 N   0  0  0  0  0  0  0  0  0  0  0  0
    0.1050   -5.1356    3.0397 C   0  0  0  0  0  0  0  0  0  0  0  0
   -0.2883   -4.9125    4.2162 O   0  0  0  0  0  0  0  0  0  0  0  0
    0.1695   -6.5126    2.6307 C   0  0  0  0  0  0  0  0  0  0  0  0
    1.1616   -6.9154    1.7647 N   0  0  0  0  0  0  0  0  0  0  0  0
    1.1978   -8.1656    1.2849 C   0  0  0  0  0  0  0  0  0  0  0  0
    0.2130   -9.0787    1.6556 C   0  0  0  0  0  0  0  0  0  0  0  0
   -0.7630   -8.6907    2.5329 N   0  0  0  0  0  0  0  0  0  0  0  0
   -0.7868   -7.4367    3.0272 C   0  0  0  0  0  0  0  0  0  0  0  0
   -0.1214    1.2648   -1.0862 O   0  0  0  0  0  0  0  0  0  0  0  0
    1.4946   -0.6150   -1.3988 O   0  0  0  0  0  0  0  0  0  0  0  0
   -0.3374   -1.4299    1.2767 H   0  0  0  0  0  0  0  0  0  0  0  0
   -1.9621   -1.1200    2.3322 H   0  0  0  0  0  0  0  0  0  0  0  0
   -0.7742    0.0996    2.5205 H   0  0  0  0  0  0  0  0  0  0  0  0
   -1.6471    1.4409    0.7111 H   0  0  0  0  0  0  0  0  0  0  0  0
   -3.5976   -0.9928    0.6931 H   0  0  0  0  0  0  0  0  0  0  0  0
   -3.9742    0.6166   -0.1515 H   0  0  0  0  0  0  0  0  0  0  0  0
   -2.6628   -0.3454   -0.6867 H   0  0  0  0  0  0  0  0  0  0  0  0
   -2.1722    1.8606    2.9660 H   0  0  0  0  0  0  0  0  0  0  0  0
   -3.6172    2.0755    1.8984 H   0  0  0  0  0  0  0  0  0  0  0  0
   -3.4680    0.5850    2.9719 H   0  0  0  0  0  0  0  0  0  0  0  0
   -1.6622   -2.1235   -0.9933 H   0  0  0  0  0  0  0  0  0  0  0  0
    0.7151   -5.1326    0.4482 H   0  0  0  0  0  0  0  0  0  0  0  0
    2.9274   -4.4081    1.0158 H   0  0  0  0  0  0  0  0  0  0  0  0
    2.4124   -3.7649   -0.5704 H   0  0  0  0  0  0  0  0  0  0  0  0
    1.2417   -1.9852    1.8317 H   0  0  0  0  0  0  0  0  0  0  0  0
    1.0683    0.5261    2.0200 H   0  0  0  0  0  0  0  0  0  0  0  0
    2.9044    1.7481    1.4689 H   0  0  0  0  0  0  0  0  0  0  0  0
    4.9895    0.5367    0.7973 H   0  0  0  0  0  0  0  0  0  0  0  0
    4.8912   -2.0166    0.3558 H   0  0  0  0  0  0  0  0  0  0  0  0
    0.1527   -3.2069    2.7402 H   0  0  0  0  0  0  0  0  0  0  0  0
    1.9881   -8.4400    0.5954 H   0  0  0  0  0  0  0  0  0  0  0  0
    0.2144  -10.0748    1.2568 H   0  0  0  0  0  0  0  0  0  0  0  0
   -1.5975   -7.1275    3.6937 H   0  0  0  0  0  0  0  0  0  0  0  0
   -1.0565    1.1396   -1.3743 H   0  0  0  0  0  0  0  0  0  0  0  0
    2.3179   -0.2945   -0.9467 H   0  0  0  0  0  0  0  0  0  0  0  0
  1  2  1  0  0  0  0
  1 27  1  0  0  0  0
  1 28  1  0  0  0  0
  2  3  1  0  0  0  0
  2  7  1  0  0  0  0
  2 29  1  1  0  0  0
  3  4  1  0  0  0  0
  3 30  1  0  0  0  0
  3 31  1  0  0  0  0
  4  5  1  0  0  0  0
  4  6  1  0  0  0  0
  4 32  1  0  0  0  0
  5 33  1  0  0  0  0
  5 34  1  0  0  0  0
  5 35  1  0  0  0  0
  6 36  1  0  0  0  0
  6 37  1  0  0  0  0
  6 38  1  0  0  0  0
  7  8  1  0  0  0  0
  7 39  1  0  0  0  0
  8  9  2  0  0  0  0
  8 10  1  0  0  0  0
 10 11  1  0  0  0  0
 10 18  1  0  0  0  0
 10 40  1  6  0  0  0
 11 12  1  0  0  0  0
 11 41  1  0  0  0  0
 11 42  1  0  0  0  0
 12 13  2  0  0  0  0
 12 17  1  0  0  0  0
 13 14  1  0  0  0  0
 13 43  1  0  0  0  0
 14 15  2  0  0  0  0
 14 44  1  0  0  0  0
 15 16  1  0  0  0  0
 15 45  1  0  0  0  0
 16 17  2  0  0  0  0
 16 46  1  0  0  0  0
 17 47  1  0  0  0  0
 18 19  1  0  0  0  0
 18 48  1  0  0  0  0
 19 20  2  0  0  0  0
 19 21  1  0  0  0  0
 21 22  2  0  0  0  0
 21 26  1  0  0  0  0
 22 23  1  0  0  0  0
 23 24  2  0  0  0  0
 23 49  1  0  0  0  0
 24 25  1  0  0  0  0
 24 50  1  0  0  0  0
 25 26  2  0  0  0  0
 26 51  1  0  0  0  0
 27 52  1  0  0  0  0
 28 53  1  0  0  0  0
M  END
$$$$

 OpenBabel05152416213D

119126  0  0  1  0  0  0  0  0999 V2000
    3.5695    4.3000   -1.9958 C   0  0  0  0  0  0  0  0  0  0  0  0
    2.8418    5.7436   -2.7964 C   0  0  2  0  0  0  0  0  0  0  0  0
    1.1394    6.4390   -2.5485 C   0  0  2  0  0  0  0  0  0  0  0  0
   -0.5326    6.1777   -3.5623 C   0  0  2  0  0  0  0  0  0  0  0  0
    0.2131    5.3438   -5.4233 C   0  0  0  0  0  0  0  0  0  0  0  0
    1.9958    4.5580   -5.2093 C   0  0  1  0  0  0  0  0  0  0  0  0
    2.8447    5.5168   -4.3477 O   0  0  0  0  0  0  0  0  0  0  0  0
    2.6028    3.1168   -4.3895 O   0  0  0  0  0  0  0  0  0  0  0  0
    1.9719    2.0340   -2.3959 C   0  0  2  0  0  0  0  0  0  0  0  0
   -0.3729    2.3899   -3.5728 C   0  0  2  0  0  0  0  0  0  0  0  0
   -0.5956    5.0424   -1.7458 O   0  0  0  0  0  0  0  0  0  0  0  0
   -0.3997    4.9212   -0.4008 C   0  0  2  0  0  0  0  0  0  0  0  0
    1.2133    4.2934    0.1851 C   0  0  0  0  0  0  0  0  0  0  0  0
    2.0637    2.4572   -0.6201 C   0  0  2  0  0  0  0  0  0  0  0  0
    3.0163    1.7558   -0.3125 O   0  0  0  0  0  0  0  0  0  0  0  0
   -1.5585    4.2950   -0.0332 O   0  0  0  0  0  0  0  0  0  0  0  0
   -1.6190    3.1653   -0.6604 C   0  0  2  0  0  0  0  0  0  0  0  0
   -0.1564    2.4604   -0.3440 C   0  0  2  0  0  0  0  0  0  0  0  0
    1.1756    3.9215   -1.7988 O   0  0  0  0  0  0  0  0  0  0  0  0
    1.1600    3.8060   -3.1586 C   0  0  2  0  0  0  0  0  0  0  0  0
    0.5112    4.3561   -3.4313 C   0  0  0  0  0  0  0  0  0  0  0  0
   -1.7809    3.9988   -2.9945 C   0  0  2  0  0  0  0  0  0  0  0  0
   -3.1500    4.4136   -3.2354 O   0  0  0  0  0  0  0  0  0  0  0  0
    1.6749    1.4848   -4.0952 O   0  0  0  0  0  0  0  0  0  0  0  0
    0.5819    0.3448   -3.2342 C   0  0  1  0  0  0  0  0  0  0  0  0
   -1.2895    0.1408   -2.8454 C   0  0  0  0  0  0  0  0  0  0  0  0
   -2.4420    2.2797   -4.9767 C   0  0  0  0  0  0  0  0  0  0  0  0
   -1.0824   -0.3547   -4.9437 C   0  0  1  0  0  0  0  0  0  0  0  0
    0.1681    0.2013   -4.8652 C   0  0  1  0  0  0  0  0  0  0  0  0
    0.4226   -0.5044   -3.7924 C   0  0  0  0  0  0  0  0  0  0  0  0
    1.1450    1.5850   -6.2310 C   0  0  0  0  0  0  0  0  0  0  0  0
    0.6983    2.2231   -7.3966 C   0  0  0  0  0  0  0  0  0  0  0  0
    0.6112    0.8186   -8.0664 C   0  0  2  0  0  0  0  0  0  0  0  0
    0.8915   -0.4902   -7.0900 C   0  0  2  0  0  0  0  0  0  0  0  0
    1.4168   -1.3863   -6.5712 C   0  0  0  0  0  0  0  0  0  0  0  0
   -0.1374   -1.9005   -6.6346 C   0  0  2  0  0  0  0  0  0  0  0  0
   -1.3517   -0.4562   -7.2895 C   0  0  1  0  0  0  0  0  0  0  0  0
   -0.8351    0.2801   -8.3415 C   0  0  2  0  0  0  0  0  0  0  0  0
   -0.6153   -0.8656   -9.2183 C   0  0  0  0  0  0  0  0  0  0  0  0
   -1.3499   -0.4729  -10.0496 C   0  0  0  0  0  0  0  0  0  0  0  0
   -2.5769   -1.1291   -7.8734 C   0  0  2  0  0  0  0  0  0  0  0  0
   -3.9822   -1.6669   -5.8531 C   0  0  0  0  0  0  0  0  0  0  0  0
   -5.0081   -2.1021   -5.5767 C   0  0  0  0  0  0  0  0  0  0  0  0
   -5.2079   -1.6881   -4.0635 C   0  0  0  0  0  0  0  0  0  0  0  0
   -6.0975   -2.1706   -3.5404 O   0  0  0  0  0  0  0  0  0  0  0  0
   -4.5038   -0.9385   -3.2382 O   0  0  0  0  0  0  0  0  0  0  0  0
   -3.6571   -0.7144   -3.9336 C   0  0  0  0  0  0  0  0  0  0  0  0
   -1.8548    1.3152   -8.7605 O   0  0  0  0  0  0  0  0  0  0  0  0
   -1.2515    1.1700   -6.7309 C   0  0  0  0  0  0  0  0  0  0  0  0
   -0.2261   -2.5321   -5.3192 O   0  0  0  0  0  0  0  0  0  0  0  0
   -3.0196    0.2913   -5.7575 C   0  0  0  0  0  0  0  0  0  0  0  0
    0.3284    0.3578   -0.3893 C   0  0  0  0  0  0  0  0  0  0  0  0
   -2.5190    1.9019   -2.8056 C   0  0  0  0  0  0  0  0  0  0  0  0
   -1.9639    6.4518   -3.3550 O   0  0  0  0  0  0  0  0  0  0  0  0
    0.7326    7.5827   -2.7027 O   0  0  0  0  0  0  0  0  0  0  0  0
    3.2574    3.6226   -2.5265 H   0  0  0  0  0  0  0  0  0  0  0  0
    3.2402    4.0118   -1.0276 H   0  0  0  0  0  0  0  0  0  0  0  0
    3.6633    3.2097   -2.3431 H   0  0  0  0  0  0  0  0  0  0  0  0
    3.1572    5.7512   -1.8023 H   0  0  0  0  0  0  0  0  0  0  0  0
    1.1101    6.1569   -1.5600 H   0  0  0  0  0  0  0  0  0  0  0  0
   -0.3988    3.4557   -2.0470 H   0  0  0  0  0  0  0  0  0  0  0  0
   -0.4974    4.4938   -5.6548 H   0  0  0  0  0  0  0  0  0  0  0  0
    0.2078    6.1317   -4.9517 H   0  0  0  0  0  0  0  0  0  0  0  0
    2.0095    4.3806   -6.1427 H   0  0  0  0  0  0  0  0  0  0  0  0
    2.4343    1.0233   -2.4915 H   0  0  0  0  0  0  0  0  0  0  0  0
    0.0087    2.7828   -4.7165 H   0  0  0  0  0  0  0  0  0  0  0  0
   -0.4919    5.9544   -0.3866 H   0  0  0  0  0  0  0  0  0  0  0  0
    1.8982    5.0956   -0.2209 H   0  0  0  0  0  0  0  0  0  0  0  0
    1.3763    4.0650    0.8485 H   0  0  0  0  0  0  0  0  0  0  0  0
    1.5338    2.0958   -1.1921 H   0  0  0  0  0  0  0  0  0  0  0  0
    3.4214    1.4185   -1.1029 H   0  0  0  0  0  0  0  0  0  0  0  0
   -2.0549    2.2078   -0.3188 H   0  0  0  0  0  0  0  0  0  0  0  0
    0.0422    2.0614    0.6114 H   0  0  0  0  0  0  0  0  0  0  0  0
    1.5118    4.3633   -3.2260 H   0  0  0  0  0  0  0  0  0  0  0  0
   -0.4730    4.2914   -3.5460 H   0  0  0  0  0  0  0  0  0  0  0  0
   -0.6175    4.2771   -3.7539 H   0  0  0  0  0  0  0  0  0  0  0  0
   -0.8882    1.9742   -1.9211 H   0  0  0  0  0  0  0  0  0  0  0  0
   -2.3087    4.1298   -3.1396 H   0  0  0  0  0  0  0  0  0  0  0  0
    0.5039    0.7300   -2.3935 H   0  0  0  0  0  0  0  0  0  0  0  0
   -2.0316    0.3789   -1.6427 H   0  0  0  0  0  0  0  0  0  0  0  0
   -1.6716    0.4773   -1.6694 H   0  0  0  0  0  0  0  0  0  0  0  0
   -3.2237    2.6715   -4.8661 H   0  0  0  0  0  0  0  0  0  0  0  0
   -1.7962    3.1564   -5.1489 H   0  0  0  0  0  0  0  0  0  0  0  0
   -0.1613   -0.3761   -5.2983 H   0  0  0  0  0  0  0  0  0  0  0  0
    1.2695   -0.9801   -3.6474 H   0  0  0  0  0  0  0  0  0  0  0  0
    0.6282   -1.3939   -3.5851 H   0  0  0  0  0  0  0  0  0  0  0  0
    1.5941    2.3104   -6.0195 H   0  0  0  0  0  0  0  0  0  0  0  0
    0.6282    1.3113   -5.6227 H   0  0  0  0  0  0  0  0  0  0  0  0
   -0.1677    2.7734   -7.7899 H   0  0  0  0  0  0  0  0  0  0  0  0
    0.0044    2.9517   -6.7254 H   0  0  0  0  0  0  0  0  0  0  0  0
    1.1018    1.1405   -8.9647 H   0  0  0  0  0  0  0  0  0  0  0  0
    2.0881   -0.5351   -7.9510 H   0  0  0  0  0  0  0  0  0  0  0  0
    2.0918   -1.6347   -5.8967 H   0  0  0  0  0  0  0  0  0  0  0  0
    1.8638   -0.5744   -5.8134 H   0  0  0  0  0  0  0  0  0  0  0  0
   -0.6554   -2.6228   -7.0278 H   0  0  0  0  0  0  0  0  0  0  0  0
   -1.2180   -1.7703   -9.5890 H   0  0  0  0  0  0  0  0  0  0  0  0
   -0.5739   -1.7388   -8.7737 H   0  0  0  0  0  0  0  0  0  0  0  0
   -0.4839   -0.2292  -11.2039 H   0  0  0  0  0  0  0  0  0  0  0  0
   -0.2704    0.0492  -10.9954 H   0  0  0  0  0  0  0  0  0  0  0  0
   -3.4541   -1.4396   -7.2169 H   0  0  0  0  0  0  0  0  0  0  0  0
   -5.3139   -2.5098   -6.3474 H   0  0  0  0  0  0  0  0  0  0  0  0
   -3.4911    0.4161   -3.7690 H   0  0  0  0  0  0  0  0  0  0  0  0
   -2.7903   -0.8186   -3.6804 H   0  0  0  0  0  0  0  0  0  0  0  0
   -2.7023    1.1073   -8.2417 H   0  0  0  0  0  0  0  0  0  0  0  0
   -1.0251    1.5297   -5.8964 H   0  0  0  0  0  0  0  0  0  0  0  0
   -1.5766    1.8938   -6.7471 H   0  0  0  0  0  0  0  0  0  0  0  0
   -1.3041    1.3228   -6.0126 H   0  0  0  0  0  0  0  0  0  0  0  0
   -0.8796   -3.2031   -5.0981 H   0  0  0  0  0  0  0  0  0  0  0  0
   -3.4275    0.4731   -6.6204 H   0  0  0  0  0  0  0  0  0  0  0  0
   -2.2181   -0.9782   -5.4213 H   0  0  0  0  0  0  0  0  0  0  0  0
   -3.8993    1.0158   -5.5015 H   0  0  0  0  0  0  0  0  0  0  0  0
   -0.4186   -0.2418   -0.6420 H   0  0  0  0  0  0  0  0  0  0  0  0
    0.1314   -0.5685   -1.2241 H   0  0  0  0  0  0  0  0  0  0  0  0
    1.3841   -0.0985   -0.9262 H   0  0  0  0  0  0  0  0  0  0  0  0
   -1.3774    1.8454   -3.5451 H   0  0  0  0  0  0  0  0  0  0  0  0
   -2.5213    2.2770   -2.1939 H   0  0  0  0  0  0  0  0  0  0  0  0
   -2.6829    2.3777   -2.2466 H   0  0  0  0  0  0  0  0  0  0  0  0
   -1.5404    6.0102   -4.0405 H   0  0  0  0  0  0  0  0  0  0  0  0
   -0.1349    7.5302   -2.1361 H   0  0  0  0  0  0  0  0  0  0  0  0
  1  2  1  0  0  0  0
  1 56  1  0  0  0  0
  1 57  1  0  0  0  0
  1 58  1  0  0  0  0
  2  3  1  0  0  0  0
  2  7  1  0  0  0  0
  2 59  1  1  0  0  0
  3  4  1  0  0  0  0
  3 60  1  1  0  0  0
  3 55  1  0  0  0  0
  4  5  1  0  0  0  0
  4 61  1  1  0  0  0
  4 54  1  0  0  0  0
  5  6  1  0  0  0  0
  5 62  1  0  0  0  0
  5 63  1  0  0  0  0
  6  7  1  0  0  0  0
  6  8  1  0  0  0  0
  6 64  1  6  0  0  0
  8  9  1  0  0  0  0
  9 10  1  0  0  0  0
  9 14  1  0  0  0  0
  9 65  1  6  0  0  0
 10 11  1  0  0  0  0
 10 66  1  6  0  0  0
 10 53  1  0  0  0  0
 11 12  1  0  0  0  0
 12 13  1  0  0  0  0
 12 67  1  1  0  0  0
 12 16  1  0  0  0  0
 13 14  1  0  0  0  0
 13 68  1  0  0  0  0
 13 69  1  0  0  0  0
 14 70  1  1  0  0  0
 14 15  1  0  0  0  0
 15 71  1  0  0  0  0
 16 17  1  0  0  0  0
 17 18  1  0  0  0  0
 17 22  1  0  0  0  0
 17 72  1  1  0  0  0
 18 19  1  0  0  0  0
 18 73  1  1  0  0  0
 18 52  1  0  0  0  0
 19 20  1  0  0  0  0
 20 21  1  0  0  0  0
 20 74  1  6  0  0  0
 20 24  1  0  0  0  0
 21 22  1  0  0  0  0
 21 75  1  0  0  0  0
 21 76  1  0  0  0  0
 22 77  1  6  0  0  0
 22 23  1  0  0  0  0
 23 78  1  0  0  0  0
 25 26  1  0  0  0  0
 25 30  1  0  0  0  0
 25 79  1  1  0  0  0
 25 24  1  0  0  0  0
 26 27  1  0  0  0  0
 26 80  1  0  0  0  0
 26 81  1  0  0  0  0
 27 28  1  0  0  0  0
 27 82  1  0  0  0  0
 27 83  1  0  0  0  0
 28 29  1  0  0  0  0
 28 34  1  0  0  0  0
 28 51  1  6  0  0  0
 29 30  1  0  0  0  0
 29 31  1  0  0  0  0
 29 84  1  1  0  0  0
 30 85  1  0  0  0  0
 30 86  1  0  0  0  0
 31 32  1  0  0  0  0
 31 87  1  0  0  0  0
 31 88  1  0  0  0  0
 32 33  1  0  0  0  0
 32 89  1  0  0  0  0
 32 90  1  0  0  0  0
 33 34  1  0  0  0  0
 33 38  1  0  0  0  0
 33 91  1  1  0  0  0
 34 35  1  0  0  0  0
 34 92  1  1  0  0  0
 35 36  1  0  0  0  0
 35 93  1  0  0  0  0
 35 94  1  0  0  0  0
 36 37  1  0  0  0  0
 36 95  1  6  0  0  0
 36 50  1  0  0  0  0
 37 38  1  0  0  0  0
 37 41  1  0  0  0  0
 37 49  1  1  0  0  0
 38 39  1  0  0  0  0
 38 48  1  6  0  0  0
 39 40  1  0  0  0  0
 39 96  1  0  0  0  0
 39 97  1  0  0  0  0
 40 41  1  0  0  0  0
 40 98  1  0  0  0  0
 40 99  1  0  0  0  0
 41100  1  1  0  0  0
 41 42  1  0  0  0  0
 42 43  2  0  0  0  0
 42 47  1  0  0  0  0
 43 44  1  0  0  0  0
 43101  1  0  0  0  0
 44 45  2  0  0  0  0
 44 46  1  0  0  0  0
 46 47  1  0  0  0  0
 47102  1  0  0  0  0
 47103  1  0  0  0  0
 48104  1  0  0  0  0
 49105  1  0  0  0  0
 49106  1  0  0  0  0
 49107  1  0  0  0  0
 50108  1  0  0  0  0
 51109  1  0  0  0  0
 51110  1  0  0  0  0
 51111  1  0  0  0  0
 52112  1  0  0  0  0
 52113  1  0  0  0  0
 52114  1  0  0  0  0
 53115  1  0  0  0  0
 53116  1  0  0  0  0
 53117  1  0  0  0  0
 54118  1  0  0  0  0
 55119  1  0  0  0  0
M  END
$$$$

 OpenBabel05152416213D

 61 65  0  0  0  0  0  0  0  0999 V2000
    1.7054   -0.2483    0.3116 C   0  0  0  0  0  0  0  0  0  0  0  0
    1.4848   -1.7562   -0.0864 C   0  0  0  0  0  0  0  0  0  0  0  0
    0.8584   -2.4449    0.7155 O   0  0  0  0  0  0  0  0  0  0  0  0
    2.1827   -2.5551   -1.7197 S   0  0  0  0  0  0  0  0  0  0  0  0
    0.7866   -2.9243   -3.0225 C   0  0  0  0  0  0  0  0  0  0  0  0
    0.6494   -3.8801   -4.2669 C   0  0  0  0  0  0  0  0  0  0  0  0
    0.9082   -3.2048   -5.7768 C   0  0  0  0  0  0  0  0  0  0  0  0
    1.5921   -4.1667   -6.3661 C   0  0  0  0  0  0  0  0  0  0  0  0
    2.6658   -3.8394   -7.2602 C   0  0  0  0  0  0  0  0  0  0  0  0
    3.8075   -4.1371   -6.9235 O   0  0  0  0  0  0  0  0  0  0  0  0
    2.4341   -2.6208   -7.9828 C   0  0  0  0  0  0  0  0  0  0  0  0
    2.4167   -1.4907   -6.9284 C   0  0  0  0  0  0  0  0  0  0  0  0
    0.9836   -1.5815   -6.4174 C   0  0  0  0  0  0  0  0  0  0  0  0
    0.7285   -0.6785   -5.2411 C   0  0  0  0  0  0  0  0  0  0  0  0
    0.2446   -1.6936   -3.8071 C   0  0  0  0  0  0  0  0  0  0  0  0
   -0.1076   -0.7073   -3.0664 C   0  0  0  0  0  0  0  0  0  0  0  0
   -0.2848   -0.6911   -1.6833 C   0  0  0  0  0  0  0  0  0  0  0  0
   -1.6946   -1.0749   -1.4106 C   0  0  0  0  0  0  0  0  0  0  0  0
   -2.3799   -0.0826   -2.5931 C   0  0  0  0  0  0  0  0  0  0  0  0
   -1.3998   -0.1845   -3.7885 C   0  0  0  0  0  0  0  0  0  0  0  0
   -0.7277    1.1255   -4.2633 C   0  0  0  0  0  0  0  0  0  0  0  0
   -0.1948    0.7217   -5.5470 C   0  0  0  0  0  0  0  0  0  0  0  0
   -2.0324   -1.2392   -5.0720 C   0  0  0  0  0  0  0  0  0  0  0  0
   -2.3700    1.2582   -1.7865 C   0  0  0  0  0  0  0  0  0  0  0  0
   -3.7617    1.6899   -1.7638 C   0  0  0  0  0  0  0  0  0  0  0  0
   -4.0959    1.2934   -3.0740 C   0  0  0  0  0  0  0  0  0  0  0  0
   -4.7225    2.0340   -3.9001 O   0  0  0  0  0  0  0  0  0  0  0  0
   -3.6107    0.0807   -3.3185 O   0  0  0  0  0  0  0  0  0  0  0  0
    0.2394   -0.7909   -7.7552 C   0  0  0  0  0  0  0  0  0  0  0  0
    1.3537    0.0591    1.3296 H   0  0  0  0  0  0  0  0  0  0  0  0
    1.2155    0.5843   -0.2021 H   0  0  0  0  0  0  0  0  0  0  0  0
    2.7426    0.0170    0.1031 H   0  0  0  0  0  0  0  0  0  0  0  0
    0.1341   -3.5107   -2.2557 H   0  0  0  0  0  0  0  0  0  0  0  0
   -0.4061   -4.2818   -4.2919 H   0  0  0  0  0  0  0  0  0  0  0  0
    1.1226   -4.8521   -3.9480 H   0  0  0  0  0  0  0  0  0  0  0  0
    1.4283   -5.1716   -6.0348 H   0  0  0  0  0  0  0  0  0  0  0  0
    1.4166   -2.8376   -8.4163 H   0  0  0  0  0  0  0  0  0  0  0  0
    3.1047   -2.5121   -8.8248 H   0  0  0  0  0  0  0  0  0  0  0  0
    2.7512   -0.5310   -7.3952 H   0  0  0  0  0  0  0  0  0  0  0  0
    3.0896   -1.6206   -6.0483 H   0  0  0  0  0  0  0  0  0  0  0  0
    1.6209   -0.0041   -5.1698 H   0  0  0  0  0  0  0  0  0  0  0  0
   -0.7130   -2.2781   -3.6724 H   0  0  0  0  0  0  0  0  0  0  0  0
    0.9906   -0.4129   -3.0994 H   0  0  0  0  0  0  0  0  0  0  0  0
    0.0392    0.4302   -1.7243 H   0  0  0  0  0  0  0  0  0  0  0  0
   -0.5015    0.1296   -1.2023 H   0  0  0  0  0  0  0  0  0  0  0  0
   -1.8586   -0.9029   -0.2390 H   0  0  0  0  0  0  0  0  0  0  0  0
   -1.5390   -2.1763   -1.3365 H   0  0  0  0  0  0  0  0  0  0  0  0
    0.2021    1.4738   -3.7119 H   0  0  0  0  0  0  0  0  0  0  0  0
   -1.3763    2.0059   -4.2861 H   0  0  0  0  0  0  0  0  0  0  0  0
   -1.1144    0.6781   -6.1521 H   0  0  0  0  0  0  0  0  0  0  0  0
    0.1456    1.6752   -6.0375 H   0  0  0  0  0  0  0  0  0  0  0  0
   -1.2752   -1.7902   -5.6659 H   0  0  0  0  0  0  0  0  0  0  0  0
   -2.3847   -2.2787   -4.8494 H   0  0  0  0  0  0  0  0  0  0  0  0
   -2.4056   -0.8562   -6.0441 H   0  0  0  0  0  0  0  0  0  0  0  0
   -2.1326    1.1808   -0.7068 H   0  0  0  0  0  0  0  0  0  0  0  0
   -1.6624    1.9991   -2.1711 H   0  0  0  0  0  0  0  0  0  0  0  0
   -3.8124    2.6999   -1.3522 H   0  0  0  0  0  0  0  0  0  0  0  0
   -4.3230    0.9191   -1.1727 H   0  0  0  0  0  0  0  0  0  0  0  0
    0.4139   -1.1150   -8.8067 H   0  0  0  0  0  0  0  0  0  0  0  0
   -0.8497   -0.5678   -7.7831 H   0  0  0  0  0  0  0  0  0  0  0  0
    0.6138    0.2823   -7.9303 H   0  0  0  0  0  0  0  0  0  0  0  0
  1  2  1  0  0  0  0
  1 30  1  0  0  0  0
  1 31  1  0  0  0  0
  1 32  1  0  0  0  0
  2  3  2  0  0  0  0
  2  4  1  0  0  0  0
  4  5  1  0  0  0  0
  5  6  1  0  0  0  0
  5 15  1  0  0  0  0
  5 33  1  0  0  0  0
  6  7  1  0  0  0  0
  6 34  1  0  0  0  0
  6 35  1  0  0  0  0
  7  8  2  0  0  0  0
  7 13  1  0  0  0  0
  8  9  1  0  0  0  0
  8 36  1  0  0  0  0
  9 10  2  0  0  0  0
  9 11  1  0  0  0  0
 11 12  1  0  0  0  0
 11 37  1  0  0  0  0
 11 38  1  0  0  0  0
 12 13  1  0  0  0  0
 12 39  1  0  0  0  0
 12 40  1  0  0  0  0
 13 14  1  0  0  0  0
 13 29  1  0  0  0  0
 14 15  1  0  0  0  0
 14 22  1  0  0  0  0
 14 41  1  0  0  0  0
 15 16  1  0  0  0  0
 15 42  1  0  0  0  0
 16 17  1  0  0  0  0
 16 20  1  0  0  0  0
 16 43  1  0  0  0  0
 17 18  1  0  0  0  0
 17 44  1  0  0  0  0
 17 45  1  0  0  0  0
 18 19  1  0  0  0  0
 18 46  1  0  0  0  0
 18 47  1  0  0  0  0
 19 20  1  0  0  0  0
 19 24  1  0  0  0  0
 19 28  1  0  0  0  0
 20 21  1  0  0  0  0
 20 23  1  0  0  0  0
 21 22  1  0  0  0  0
 21 48  1  0  0  0  0
 21 49  1  0  0  0  0
 22 50  1  0  0  0  0
 22 51  1  0  0  0  0
 23 52  1  0  0  0  0
 23 53  1  0  0  0  0
 23 54  1  0  0  0  0
 24 25  1  0  0  0  0
 24 55  1  0  0  0  0
 24 56  1  0  0  0  0
 25 26  1  0  0  0  0
 25 57  1  0  0  0  0
 25 58  1  0  0  0  0
 26 27  2  0  0  0  0
 26 28  1  0  0  0  0
 29 59  1  0  0  0  0
 29 60  1  0  0  0  0
 29 61  1  0  0  0  0
M  END
$$$$

 OpenBabel05152416213D

 33 34  0  0  0  0  0  0  0  0999 V2000
    1.8331    0.0522   -1.7487 C   0  0  0  0  0  0  0  0  0  0  0  0
    0.7276    0.9385   -2.0793 C   0  0  0  0  0  0  0  0  0  0  0  0
   -0.9229    1.1399   -1.6614 C   0  0  0  0  0  0  0  0  0  0  0  0
   -1.3400    2.3293   -0.9462 O   0  0  0  0  0  0  0  0  0  0  0  0
   -1.0746    2.4222    0.4978 C   0  0  0  0  0  0  0  0  0  0  0  0
   -1.6987    1.5866    1.8139 C   0  0  0  0  0  0  0  0  0  0  0  0
   -1.3446    0.1806    2.2519 N   0  0  0  0  0  0  0  0  0  0  0  0
   -0.1532   -0.4158    2.7003 C   0  0  0  0  0  0  0  0  0  0  0  0
   -0.2553   -1.7930    2.4812 C   0  0  0  0  0  0  0  0  0  0  0  0
   -1.5339   -2.0831    2.1454 N   0  0  0  0  0  0  0  0  0  0  0  0
   -2.1641   -0.9042    2.0785 C   0  0  0  0  0  0  0  0  0  0  0  0
    0.3536    2.4860    0.6101 C   0  0  0  0  0  0  0  0  0  0  0  0
    1.0321    1.2546    0.6029 C   0  0  0  0  0  0  0  0  0  0  0  0
    2.4325    1.3442    0.7071 C   0  0  0  0  0  0  0  0  0  0  0  0
    3.1028    2.5847    0.6901 C   0  0  0  0  0  0  0  0  0  0  0  0
    2.4014    3.7816    0.6119 C   0  0  0  0  0  0  0  0  0  0  0  0
    1.0200    3.7427    0.6032 C   0  0  0  0  0  0  0  0  0  0  0  0
    4.8499    2.6401    0.6682 Cl  0  0  0  0  0  0  0  0  0  0  0  0
    0.1499   -0.4051    0.2016 Cl  0  0  0  0  0  0  0  0  0  0  0  0
    1.9452   -0.8260   -1.0568 H   0  0  0  0  0  0  0  0  0  0  0  0
    2.8488    0.2201   -2.0603 H   0  0  0  0  0  0  0  0  0  0  0  0
    1.1235    1.6819   -2.7265 H   0  0  0  0  0  0  0  0  0  0  0  0
   -1.5651    0.9597   -2.5413 H   0  0  0  0  0  0  0  0  0  0  0  0
   -1.5977    0.4529   -1.1102 H   0  0  0  0  0  0  0  0  0  0  0  0
   -1.4627    3.4618    0.7092 H   0  0  0  0  0  0  0  0  0  0  0  0
   -1.4206    2.2153    2.6880 H   0  0  0  0  0  0  0  0  0  0  0  0
   -2.7986    1.6587    1.6935 H   0  0  0  0  0  0  0  0  0  0  0  0
    0.8156    0.0841    2.7707 H   0  0  0  0  0  0  0  0  0  0  0  0
    0.5888   -2.4767    2.2750 H   0  0  0  0  0  0  0  0  0  0  0  0
   -3.1908   -0.8112    1.7474 H   0  0  0  0  0  0  0  0  0  0  0  0
    3.0351    0.4607    0.7116 H   0  0  0  0  0  0  0  0  0  0  0  0
    2.9294    4.7341    0.5450 H   0  0  0  0  0  0  0  0  0  0  0  0
    0.4909    4.6942    0.5324 H   0  0  0  0  0  0  0  0  0  0  0  0
  1  2  2  0  0  0  0
  1 20  1  0  0  0  0
  1 21  1  0  0  0  0
  2  3  1  0  0  0  0
  2 22  1  0  0  0  0
  3  4  1  0  0  0  0
  3 23  1  0  0  0  0
  3 24  1  0  0  0  0
  4  5  1  0  0  0  0
  5  6  1  0  0  0  0
  5 12  1  0  0  0  0
  5 25  1  0  0  0  0
  6  7  1  0  0  0  0
  6 26  1  0  0  0  0
  6 27  1  0  0  0  0
  7  8  1  0  0  0  0
  7 11  1  0  0  0  0
  8  9  2  0  0  0  0
  8 28  1  0  0  0  0
  9 10  1  0  0  0  0
  9 29  1  0  0  0  0
 10 11  2  0  0  0  0
 11 30  1  0  0  0  0
 12 13  2  0  0  0  0
 12 17  1  0  0  0  0
 13 14  1  0  0  0  0
 13 19  1  0  0  0  0
 14 15  2  0  0  0  0
 14 31  1  0  0  0  0
 15 16  1  0  0  0  0
 15 18  1  0  0  0  0
 16 17  2  0  0  0  0
 16 32  1  0  0  0  0
 17 33  1  0  0  0  0
M  END
$$$$

 OpenBabel05152416213D

 32 32  0  0  0  0  0  0  0  0999 V2000
    2.6034    0.1197   -0.0039 C   0  0  0  0  0  0  0  0  0  0  0  0
    1.1186    0.1607   -0.0088 C   0  0  0  0  0  0  0  0  0  0  0  0
    0.4698   -1.0503   -0.0463 C   0  0  0  0  0  0  0  0  0  0  0  0
   -0.8916   -1.0972   -0.0751 C   0  0  0  0  0  0  0  0  0  0  0  0
   -1.7331    0.0188   -0.0468 C   0  0  0  0  0  0  0  0  0  0  0  0
   -1.0483    1.2767    0.0000 C   0  0  0  0  0  0  0  0  0  0  0  0
    0.3576    1.3399    0.0120 C   0  0  0  0  0  0  0  0  0  0  0  0
   -3.1809   -0.0858   -0.0620 N   0  0  0  0  0  0  0  0  0  0  0  0
   -4.1976   -1.5558   -0.3733 S   0  0  0  0  0  0  0  0  0  0  0  0
   -3.2777   -3.1256   -0.0411 C   0  0  0  0  0  0  0  0  0  0  0  0
   -2.4469   -3.4036   -1.1199 F   0  0  0  0  0  0  0  0  0  0  0  0
   -2.5185   -3.2000    1.5939 Cl  0  0  0  0  0  0  0  0  0  0  0  0
   -4.4123   -4.4823   -0.0418 Cl  0  0  0  0  0  0  0  0  0  0  0  0
   -4.1488    1.4143   -0.0322 S   0  0  0  0  0  0  0  0  0  0  0  0
   -3.7658    2.2669    1.1897 O   0  0  0  0  0  0  0  0  0  0  0  0
   -3.7670    2.2599   -1.2610 O   0  0  0  0  0  0  0  0  0  0  0  0
   -5.9200    1.1789   -0.0501 N   0  0  0  0  0  0  0  0  0  0  0  0
   -6.3495    0.5049    1.1809 C   0  0  0  0  0  0  0  0  0  0  0  0
   -6.5934    2.4857   -0.1291 C   0  0  0  0  0  0  0  0  0  0  0  0
    2.9437   -0.4525    0.8879 H   0  0  0  0  0  0  0  0  0  0  0  0
    2.9401   -0.4209   -0.9169 H   0  0  0  0  0  0  0  0  0  0  0  0
    3.0339    1.1363    0.0100 H   0  0  0  0  0  0  0  0  0  0  0  0
    1.0233   -1.9838   -0.0595 H   0  0  0  0  0  0  0  0  0  0  0  0
   -1.2041   -2.0571   -0.1127 H   0  0  0  0  0  0  0  0  0  0  0  0
   -1.5757    2.2176    0.0176 H   0  0  0  0  0  0  0  0  0  0  0  0
    0.8558    2.3015    0.0368 H   0  0  0  0  0  0  0  0  0  0  0  0
   -6.0928    1.1066    2.0779 H   0  0  0  0  0  0  0  0  0  0  0  0
   -7.4428    0.3154    1.1434 H   0  0  0  0  0  0  0  0  0  0  0  0
   -5.8692   -0.4791    1.2919 H   0  0  0  0  0  0  0  0  0  0  0  0
   -6.3546    3.1151    0.7581 H   0  0  0  0  0  0  0  0  0  0  0  0
   -6.2929    3.0336   -1.0465 H   0  0  0  0  0  0  0  0  0  0  0  0
   -7.6960    2.3450   -0.1727 H   0  0  0  0  0  0  0  0  0  0  0  0
  1  2  1  0  0  0  0
  1 20  1  0  0  0  0
  1 21  1  0  0  0  0
  1 22  1  0  0  0  0
  2  3  2  0  0  0  0
  2  7  1  0  0  0  0
  3  4  1  0  0  0  0
  3 23  1  0  0  0  0
  4  5  2  0  0  0  0
  4 24  1  0  0  0  0
  5  6  1  0  0  0  0
  5  8  1  0  0  0  0
  6  7  2  0  0  0  0
  6 25  1  0  0  0  0
  7 26  1  0  0  0  0
  8  9  1  0  0  0  0
  8 14  1  0  0  0  0
  9 10  1  0  0  0  0
 10 11  1  0  0  0  0
 10 12  1  0  0  0  0
 10 13  1  0  0  0  0
 14 15  2  0  0  0  0
 14 16  2  0  0  0  0
 14 17  1  0  0  0  0
 17 18  1  0  0  0  0
 17 19  1  0  0  0  0
 18 27  1  0  0  0  0
 18 28  1  0  0  0  0
 18 29  1  0  0  0  0
 19 30  1  0  0  0  0
 19 31  1  0  0  0  0
 19 32  1  0  0  0  0
M  END
$$$$

 OpenBabel05152416213D

 51 55  0  0  1  0  0  0  0  0999 V2000
    1.0547   -0.0796   -0.0318 C   0  0  0  0  0  0  0  0  0  0  0  0
    0.5686   -0.2248   -1.3877 N   0  0  0  0  0  0  0  0  0  0  0  0
    0.5002   -1.5201   -1.9178 C   0  0  0  0  0  0  0  0  0  0  0  0
    1.5371   -2.3912   -1.6006 C   0  0  0  0  0  0  0  0  0  0  0  0
    1.5412   -3.6834   -2.0794 C   0  0  0  0  0  0  0  0  0  0  0  0
    0.4993   -4.1320   -2.8732 C   0  0  0  0  0  0  0  0  0  0  0  0
   -0.5426   -3.2833   -3.1891 C   0  0  0  0  0  0  0  0  0  0  0  0
   -0.5578   -1.9666   -2.7164 C   0  0  0  0  0  0  0  0  0  0  0  0
   -1.7060   -1.1205   -3.1006 C   0  0  0  0  0  0  0  0  0  0  0  0
   -1.5984    0.1220   -3.4301 N   0  0  0  0  0  0  0  0  0  0  0  0
   -0.3219    0.7736   -3.4333 C   0  0  1  0  0  0  0  0  0  0  0  0
    0.2289    0.8898   -2.0570 C   0  0  0  0  0  0  0  0  0  0  0  0
    0.3852    1.9985   -1.5068 O   0  0  0  0  0  0  0  0  0  0  0  0
    0.6178    0.1334   -4.3501 N   0  0  0  0  0  0  0  0  0  0  0  0
    1.1186    0.7936   -5.4231 C   0  0  0  0  0  0  0  0  0  0  0  0
    1.9666    0.2187   -6.2127 O   0  0  0  0  0  0  0  0  0  0  0  0
    0.4570    2.1848   -5.7626 C   0  0  0  0  0  0  0  0  0  0  0  0
    1.0790    2.4934   -7.2169 C   0  0  0  0  0  0  0  0  0  0  0  0
    2.2646    2.3014   -8.1504 C   0  0  0  0  0  0  0  0  0  0  0  0
    2.1481    0.8991   -8.3913 C   0  0  0  0  0  0  0  0  0  0  0  0
    3.1636    0.1398   -8.8212 C   0  0  0  0  0  0  0  0  0  0  0  0
    4.3179    0.7835   -9.1290 C   0  0  0  0  0  0  0  0  0  0  0  0
    4.5059    2.3424   -8.7662 C   0  0  0  0  0  0  0  0  0  0  0  0
    2.8944    2.8442   -7.5588 C   0  0  0  0  0  0  0  0  0  0  0  0
    0.8544    2.8912   -5.3730 N   0  0  0  0  0  0  0  0  0  0  0  0
   -3.0675   -1.7405   -3.1132 C   0  0  0  0  0  0  0  0  0  0  0  0
   -3.8473   -1.7968   -4.2888 C   0  0  0  0  0  0  0  0  0  0  0  0
   -5.2084   -2.1032   -4.2216 C   0  0  0  0  0  0  0  0  0  0  0  0
   -5.7108   -2.6143   -3.0988 C   0  0  0  0  0  0  0  0  0  0  0  0
   -4.8677   -2.8476   -2.0127 C   0  0  0  0  0  0  0  0  0  0  0  0
   -3.5866   -2.2718   -1.9728 C   0  0  0  0  0  0  0  0  0  0  0  0
    0.6954   -0.8969    0.5760 H   0  0  0  0  0  0  0  0  0  0  0  0
    0.6980    0.8467    0.3892 H   0  0  0  0  0  0  0  0  0  0  0  0
    2.1310   -0.0794   -0.0242 H   0  0  0  0  0  0  0  0  0  0  0  0
    2.3454   -2.0534   -0.9819 H   0  0  0  0  0  0  0  0  0  0  0  0
    2.3505   -4.3404   -1.8354 H   0  0  0  0  0  0  0  0  0  0  0  0
    0.4999   -5.1376   -3.2402 H   0  0  0  0  0  0  0  0  0  0  0  0
   -1.3437   -3.6383   -3.8071 H   0  0  0  0  0  0  0  0  0  0  0  0
   -0.4790    1.5119   -3.6467 H   0  0  0  0  0  0  0  0  0  0  0  0
    0.8785   -0.8352   -4.1598 H   0  0  0  0  0  0  0  0  0  0  0  0
    1.0793    3.9134   -7.1519 H   0  0  0  0  0  0  0  0  0  0  0  0
    1.1159    0.4601   -8.2715 H   0  0  0  0  0  0  0  0  0  0  0  0
    3.0678   -0.9124   -8.9674 H   0  0  0  0  0  0  0  0  0  0  0  0
    5.1035    0.1731   -9.5297 H   0  0  0  0  0  0  0  0  0  0  0  0
    5.2366    2.6706   -9.4331 H   0  0  0  0  0  0  0  0  0  0  0  0
   -0.3387    3.1080   -4.2931 H   0  0  0  0  0  0  0  0  0  0  0  0
   -3.3976   -1.5904   -5.2400 H   0  0  0  0  0  0  0  0  0  0  0  0
   -5.8550   -1.9424   -5.0551 H   0  0  0  0  0  0  0  0  0  0  0  0
   -6.7511   -2.8459   -3.0514 H   0  0  0  0  0  0  0  0  0  0  0  0
   -5.2100   -3.4549   -1.1994 H   0  0  0  0  0  0  0  0  0  0  0  0
   -3.0163   -2.2470   -1.0662 H   0  0  0  0  0  0  0  0  0  0  0  0
  1  2  1  0  0  0  0
  1 32  1  0  0  0  0
  1 33  1  0  0  0  0
  1 34  1  0  0  0  0
  2  3  1  0  0  0  0
  2 12  1  0  0  0  0
  3  4  2  0  0  0  0
  3  8  1  0  0  0  0
  4  5  1  0  0  0  0
  4 35  1  0  0  0  0
  5  6  2  0  0  0  0
  5 36  1  0  0  0  0
  6  7  1  0  0  0  0
  6 37  1  0  0  0  0
  7  8  2  0  0  0  0
  7 38  1  0  0  0  0
  8  9  1  0  0  0  0
  9 10  2  0  0  0  0
  9 26  1  0  0  0  0
 10 11  1  0  0  0  0
 11 12  1  0  0  0  0
 11 14  1  0  0  0  0
 11 39  1  6  0  0  0
 12 13  2  0  0  0  0
 14 15  1  0  0  0  0
 14 40  1  0  0  0  0
 15 16  2  0  0  0  0
 15 17  1  0  0  0  0
 17 18  2  0  0  0  0
 17 25  1  0  0  0  0
 18 19  1  0  0  0  0
 18 41  1  0  0  0  0
 19 20  2  0  0  0  0
 19 24  1  0  0  0  0
 20 21  1  0  0  0  0
 20 42  1  0  0  0  0
 21 22  2  0  0  0  0
 21 43  1  0  0  0  0
 22 23  1  0  0  0  0
 22 44  1  0  0  0  0
 23 24  2  0  0  0  0
 23 45  1  0  0  0  0
 24 25  1  0  0  0  0
 25 46  1  0  0  0  0
 26 27  2  0  0  0  0
 26 31  1  0  0  0  0
 27 28  1  0  0  0  0
 27 47  1  0  0  0  0
 28 29  2  0  0  0  0
 28 48  1  0  0  0  0
 29 30  1  0  0  0  0
 29 49  1  0  0  0  0
 30 31  2  0  0  0  0
 30 50  1  0  0  0  0
 31 51  1  0  0  0  0
M  END
$$$$

 OpenBabel05152416213D

 18 19  0  0  0  0  0  0  0  0999 V2000
    2.4609    0.7327   -0.0007 C   0  0  0  0  0  0  0  0  0  0  0  0
    2.4795   -0.6635   -0.0003 C   0  0  0  0  0  0  0  0  0  0  0  0
    1.2795   -1.3824   -0.0005 C   0  0  0  0  0  0  0  0  0  0  0  0
    0.0468   -0.7028   -0.0009 C   0  0  0  0  0  0  0  0  0  0  0  0
    0.0340    0.7071   -0.0010 C   0  0  0  0  0  0  0  0  0  0  0  0
    1.2454    1.4157   -0.0010 C   0  0  0  0  0  0  0  0  0  0  0  0
   -1.2604    1.4254   -0.0008 C   0  0  0  0  0  0  0  0  0  0  0  0
   -1.2858    2.6482   -0.0011 O   0  0  0  0  0  0  0  0  0  0  0  0
   -2.5328    0.6671    0.0003 C   0  0  0  0  0  0  0  0  0  0  0  0
   -2.5282   -0.6840    0.0003 C   0  0  0  0  0  0  0  0  0  0  0  0
   -1.2451   -1.4363   -0.0012 C   0  0  0  0  0  0  0  0  0  0  0  0
   -1.2607   -2.6594   -0.0028 O   0  0  0  0  0  0  0  0  0  0  0  0
   -4.0460   -1.5873    0.0021 Cl  0  0  0  0  0  0  0  0  0  0  0  0
   -4.0475    1.5755    0.0018 Cl  0  0  0  0  0  0  0  0  0  0  0  0
    3.3880    1.2904   -0.0008 H   0  0  0  0  0  0  0  0  0  0  0  0
    3.4264   -1.1872    0.0001 H   0  0  0  0  0  0  0  0  0  0  0  0
    1.3167   -2.4652   -0.0001 H   0  0  0  0  0  0  0  0  0  0  0  0
    1.2498    2.4983   -0.0012 H   0  0  0  0  0  0  0  0  0  0  0  0
  1  2  2  0  0  0  0
  1  6  1  0  0  0  0
  1 15  1  0  0  0  0
  2  3  1  0  0  0  0
  2 16  1  0  0  0  0
  3  4  2  0  0  0  0
  3 17  1  0  0  0  0
  4  5  1  0  0  0  0
  4 11  1  0  0  0  0
  5  6  2  0  0  0  0
  5  7  1  0  0  0  0
  6 18  1  0  0  0  0
  7  8  2  0  0  0  0
  7  9  1  0  0  0  0
  9 10  2  0  0  0  0
  9 14  1  0  0  0  0
 10 11  1  0  0  0  0
 10 13  1  0  0  0  0
 11 12  2  0  0  0  0
M  END
$$$$

 OpenBabel05152416213D

 40 40  0  0  0  0  0  0  0  0999 V2000
    0.9732   -0.2567    0.5890 C   0  0  0  0  0  0  0  0  0  0  0  0
    0.2394    0.8189    0.9856 C   0  0  0  0  0  0  0  0  0  0  0  0
   -1.2346    0.8959    1.4769 C   0  0  0  0  0  0  0  0  0  0  0  0
   -1.4750    0.2945    2.7259 O   0  0  0  0  0  0  0  0  0  0  0  0
   -1.1475   -1.0914    2.6869 C   0  0  0  0  0  0  0  0  0  0  0  0
   -1.8282   -1.9101    1.3876 C   0  0  0  0  0  0  0  0  0  0  0  0
   -1.5030   -1.6560   -0.0994 N   0  0  0  0  0  0  0  0  0  0  0  0
   -1.8057   -0.6392   -0.9503 C   0  0  0  0  0  0  0  0  0  0  0  0
   -1.1502   -0.8243   -2.1360 C   0  0  0  0  0  0  0  0  0  0  0  0
   -0.5448   -2.0105   -2.1150 N   0  0  0  0  0  0  0  0  0  0  0  0
   -0.8160   -2.5236   -0.8819 C   0  0  0  0  0  0  0  0  0  0  0  0
    0.3809   -1.1954    3.0370 C   0  0  0  0  0  0  0  0  0  0  0  0
    1.1310   -2.3757    2.8426 C   0  0  0  0  0  0  0  0  0  0  0  0
    2.5261   -2.2974    2.7284 C   0  0  0  0  0  0  0  0  0  0  0  0
    3.1967   -1.0740    2.8075 C   0  0  0  0  0  0  0  0  0  0  0  0
    2.4941    0.0781    3.1285 C   0  0  0  0  0  0  0  0  0  0  0  0
    1.1145    0.0132    3.3309 C   0  0  0  0  0  0  0  0  0  0  0  0
    4.9110   -0.9769    2.4550 Cl  0  0  0  0  0  0  0  0  0  0  0  0
    0.4154   -3.9575    2.6104 Cl  0  0  0  0  0  0  0  0  0  0  0  0
    1.5103    0.4112   -1.7436 O   0  0  0  0  0  0  0  0  0  0  0  0
    0.7339    1.9157   -1.8988 S   0  0  0  0  0  0  0  0  0  0  0  0
    1.5859    2.9889   -1.1989 O   0  0  0  0  0  0  0  0  0  0  0  0
    0.8753    2.2188   -3.3864 O   0  0  0  0  0  0  0  0  0  0  0  0
   -0.9164    2.0831   -1.3903 O   0  0  0  0  0  0  0  0  0  0  0  0
    0.6802   -1.2606    0.4254 H   0  0  0  0  0  0  0  0  0  0  0  0
    2.0498   -0.1872    0.4998 H   0  0  0  0  0  0  0  0  0  0  0  0
    0.8446    1.6960    1.1744 H   0  0  0  0  0  0  0  0  0  0  0  0
   -1.4841    1.9734    1.4597 H   0  0  0  0  0  0  0  0  0  0  0  0
   -2.1198    0.6037    0.9828 H   0  0  0  0  0  0  0  0  0  0  0  0
   -1.6491   -1.5381    3.5701 H   0  0  0  0  0  0  0  0  0  0  0  0
   -1.6170   -2.9736    1.5544 H   0  0  0  0  0  0  0  0  0  0  0  0
   -2.9271   -1.8494    1.4864 H   0  0  0  0  0  0  0  0  0  0  0  0
   -2.4072    0.2415   -0.8405 H   0  0  0  0  0  0  0  0  0  0  0  0
   -1.1200   -0.1065   -2.9511 H   0  0  0  0  0  0  0  0  0  0  0  0
   -0.4482   -3.4831   -0.5817 H   0  0  0  0  0  0  0  0  0  0  0  0
    3.0810   -3.1904    2.4923 H   0  0  0  0  0  0  0  0  0  0  0  0
    2.9926    1.0466    3.1225 H   0  0  0  0  0  0  0  0  0  0  0  0
    0.6250    0.9720    3.4899 H   0  0  0  0  0  0  0  0  0  0  0  0
    2.3997    0.6474   -1.3764 H   0  0  0  0  0  0  0  0  0  0  0  0
   -1.4985    2.0854   -2.1935 H   0  0  0  0  0  0  0  0  0  0  0  0
  1  2  2  0  0  0  0
  1 25  1  0  0  0  0
  1 26  1  0  0  0  0
  2  3  1  0  0  0  0
  2 27  1  0  0  0  0
  3  4  1  0  0  0  0
  3 28  1  0  0  0  0
  3 29  1  0  0  0  0
  4  5  1  0  0  0  0
  5  6  1  0  0  0  0
  5 12  1  0  0  0  0
  5 30  1  0  0  0  0
  6  7  1  0  0  0  0
  6 31  1  0  0  0  0
  6 32  1  0  0  0  0
  7  8  1  0  0  0  0
  7 11  1  0  0  0  0
  8  9  2  0  0  0  0
  8 33  1  0  0  0  0
  9 10  1  0  0  0  0
  9 34  1  0  0  0  0
 10 11  2  0  0  0  0
 11 35  1  0  0  0  0
 12 13  2  0  0  0  0
 12 17  1  0  0  0  0
 13 14  1  0  0  0  0
 13 19  1  0  0  0  0
 14 15  2  0  0  0  0
 14 36  1  0  0  0  0
 15 16  1  0  0  0  0
 15 18  1  0  0  0  0
 16 17  2  0  0  0  0
 16 37  1  0  0  0  0
 17 38  1  0  0  0  0
 20 21  1  0  0  0  0
 20 39  1  0  0  0  0
 21 22  2  0  0  0  0
 21 23  2  0  0  0  0
 21 24  1  0  0  0  0
 24 40  1  0  0  0  0
M  END
$$$$

 OpenBabel05152416213D

 52 51  0  0  0  0  0  0  0  0999 V2000
   -0.4374   -0.2082   -0.2863 C   0  0  0  0  0  0  0  0  0  0  0  0
    0.0058    1.2862    0.4442 C   0  0  0  0  0  0  0  0  0  0  0  0
    0.8380    2.5211   -0.2398 C   0  0  0  0  0  0  0  0  0  0  0  0
    0.4979    2.7231   -1.7045 C   0  0  0  0  0  0  0  0  0  0  0  0
   -1.0325    2.6115   -1.7219 C   0  0  0  0  0  0  0  0  0  0  0  0
   -1.6219    3.7963   -0.9326 C   0  0  0  0  0  0  0  0  0  0  0  0
   -1.1698    5.0883   -1.6208 C   0  0  0  0  0  0  0  0  0  0  0  0
   -1.5702    5.0097   -3.1002 C   0  0  0  0  0  0  0  0  0  0  0  0
   -3.0356    4.9301   -3.1524 N   0  0  0  0  0  0  0  0  0  0  0  0
   -3.8231    5.9830   -3.1269 C   0  0  0  0  0  0  0  0  0  0  0  0
   -5.1304    5.5341   -3.1030 C   0  0  0  0  0  0  0  0  0  0  0  0
   -5.1154    4.2075   -3.0916 N   0  3  0  0  0  0  0  0  0  0  0  0
   -3.8175    3.8167   -3.1167 C   0  0  0  0  0  0  0  0  0  0  0  0
   -6.2700    3.3118   -3.0483 C   0  0  0  0  0  0  0  0  0  0  0  0
    2.1971   -0.4948    0.4458 C   0  0  0  0  0  0  0  0  0  0  0  0
    1.6847   -0.2122    1.7020 F   0  0  0  0  0  0  0  0  0  0  0  0
    1.9230    0.3032   -0.6725 F   0  0  0  0  0  0  0  0  0  0  0  0
    1.9058   -1.8262    0.2202 F   0  0  0  0  0  0  0  0  0  0  0  0
    3.8381   -0.2150    0.4200 S   0  0  0  0  0  0  0  0  0  0  0  0
    3.7734    1.3204    0.5166 O   0  0  0  0  0  0  0  0  0  0  0  0
    4.0157   -0.9786    1.7363 O   0  0  0  0  0  0  0  0  0  0  0  0
    3.8179   -0.9926   -1.1650 N   0  5  0  0  0  0  0  0  0  0  0  0
    5.4623   -0.9678   -1.5513 S   0  0  0  0  0  0  0  0  0  0  0  0
    5.8625    0.5119   -1.4363 O   0  0  0  0  0  0  0  0  0  0  0  0
    6.0744   -1.6407   -0.3151 O   0  0  0  0  0  0  0  0  0  0  0  0
    5.8983   -1.7676   -3.0495 C   0  0  0  0  0  0  0  0  0  0  0  0
    5.3940   -3.0531   -3.0320 F   0  0  0  0  0  0  0  0  0  0  0  0
    5.3865   -1.0595   -4.1191 F   0  0  0  0  0  0  0  0  0  0  0  0
    7.2718   -1.7767   -3.0715 F   0  0  0  0  0  0  0  0  0  0  0  0
    0.1348   -0.8713   -1.0319 H   0  0  0  0  0  0  0  0  0  0  0  0
   -0.6261   -0.9753    0.4991 H   0  0  0  0  0  0  0  0  0  0  0  0
    0.1540   -0.7945   -1.0786 H   0  0  0  0  0  0  0  0  0  0  0  0
   -0.9730    1.6023    0.8332 H   0  0  0  0  0  0  0  0  0  0  0  0
    0.4920    1.4044    1.4198 H   0  0  0  0  0  0  0  0  0  0  0  0
    0.6870    3.4553    0.3673 H   0  0  0  0  0  0  0  0  0  0  0  0
    1.9421    2.5382   -0.1830 H   0  0  0  0  0  0  0  0  0  0  0  0
    0.9571    3.6533   -2.1414 H   0  0  0  0  0  0  0  0  0  0  0  0
    0.9958    2.0093   -2.3826 H   0  0  0  0  0  0  0  0  0  0  0  0
   -1.3856    2.4414   -2.7359 H   0  0  0  0  0  0  0  0  0  0  0  0
   -1.4573    1.7015   -1.3007 H   0  0  0  0  0  0  0  0  0  0  0  0
   -2.7174    3.6906   -0.8733 H   0  0  0  0  0  0  0  0  0  0  0  0
   -1.3339    3.8082    0.1395 H   0  0  0  0  0  0  0  0  0  0  0  0
   -1.5998    5.9596   -1.1027 H   0  0  0  0  0  0  0  0  0  0  0  0
   -0.0803    5.2626   -1.5320 H   0  0  0  0  0  0  0  0  0  0  0  0
   -1.2084    5.8980   -3.6369 H   0  0  0  0  0  0  0  0  0  0  0  0
   -1.1197    4.1854   -3.6872 H   0  0  0  0  0  0  0  0  0  0  0  0
   -3.4824    7.0089   -3.1125 H   0  0  0  0  0  0  0  0  0  0  0  0
   -6.0110    6.1557   -3.0809 H   0  0  0  0  0  0  0  0  0  0  0  0
   -3.4983    2.7957   -3.0827 H   0  0  0  0  0  0  0  0  0  0  0  0
   -6.2558    2.6546   -3.9391 H   0  0  0  0  0  0  0  0  0  0  0  0
   -6.2446    2.6983   -2.1248 H   0  0  0  0  0  0  0  0  0  0  0  0
   -7.1995    3.9205   -3.0566 H   0  0  0  0  0  0  0  0  0  0  0  0
  1  2  1  0  0  0  0
  1 30  1  0  0  0  0
  1 31  1  0  0  0  0
  1 32  1  0  0  0  0
  2  3  1  0  0  0  0
  2 33  1  0  0  0  0
  2 34  1  0  0  0  0
  3  4  1  0  0  0  0
  3 35  1  0  0  0  0
  3 36  1  0  0  0  0
  4  5  1  0  0  0  0
  4 37  1  0  0  0  0
  4 38  1  0  0  0  0
  5  6  1  0  0  0  0
  5 39  1  0  0  0  0
  5 40  1  0  0  0  0
  6  7  1  0  0  0  0
  6 41  1  0  0  0  0
  6 42  1  0  0  0  0
  7  8  1  0  0  0  0
  7 43  1  0  0  0  0
  7 44  1  0  0  0  0
  8  9  1  0  0  0  0
  8 45  1  0  0  0  0
  8 46  1  0  0  0  0
  9 10  1  0  0  0  0
  9 13  1  0  0  0  0
 10 11  2  0  0  0  0
 10 47  1  0  0  0  0
 11 12  1  0  0  0  0
 11 48  1  0  0  0  0
 12 13  2  0  0  0  0
 12 14  1  0  0  0  0
 13 49  1  0  0  0  0
 14 50  1  0  0  0  0
 14 51  1  0  0  0  0
 14 52  1  0  0  0  0
 15 16  1  0  0  0  0
 15 17  1  0  0  0  0
 15 18  1  0  0  0  0
 15 19  1  0  0  0  0
 19 20  2  0  0  0  0
 19 21  2  0  0  0  0
 19 22  1  0  0  0  0
 22 23  1  0  0  0  0
 23 24  2  0  0  0  0
 23 25  2  0  0  0  0
 23 26  1  0  0  0  0
 26 27  1  0  0  0  0
 26 28  1  0  0  0  0
 26 29  1  0  0  0  0
M  CHG  2  12   1  22  -1
M  END
$$$$

 OpenBabel05152416213D

 28 28  0  0  0  0  0  0  0  0999 V2000
    0.2380    0.2504   -0.0277 C   0  0  0  0  0  0  0  0  0  0  0  0
    0.5092   -0.2798    1.2807 O   0  0  0  0  0  0  0  0  0  0  0  0
    1.0859   -1.8653    1.6639 P   0  0  0  0  0  0  0  0  0  0  0  0
    0.5430   -2.4377    0.3250 O   0  0  0  0  0  0  0  0  0  0  0  0
    2.7643   -1.3986    1.1927 O   0  0  0  0  0  0  0  0  0  0  0  0
    2.9261   -0.5061    0.0996 C   0  0  0  0  0  0  0  0  0  0  0  0
    1.6626   -3.4507    2.0472 O   0  0  0  0  0  0  0  0  0  0  0  0
    2.6883   -4.1248    1.3289 C   0  0  0  0  0  0  0  0  0  0  0  0
    3.2307   -3.7216    0.1056 C   0  0  0  0  0  0  0  0  0  0  0  0
    4.5221   -4.5078   -0.8363 Cl  0  0  0  0  0  0  0  0  0  0  0  0
    3.2289   -5.4246    1.7877 C   0  0  0  0  0  0  0  0  0  0  0  0
    4.6118   -5.6763    1.8325 C   0  0  0  0  0  0  0  0  0  0  0  0
    5.1137   -6.9577    2.0386 C   0  0  0  0  0  0  0  0  0  0  0  0
    4.2118   -8.0205    2.2303 C   0  0  0  0  0  0  0  0  0  0  0  0
    2.8388   -7.7741    2.2235 C   0  0  0  0  0  0  0  0  0  0  0  0
    2.3304   -6.4919    2.0088 C   0  0  0  0  0  0  0  0  0  0  0  0
    0.5913   -6.2717    1.8866 Cl  0  0  0  0  0  0  0  0  0  0  0  0
    4.7928   -9.6631    2.4429 Cl  0  0  0  0  0  0  0  0  0  0  0  0
    6.8510   -7.2189    1.9862 Cl  0  0  0  0  0  0  0  0  0  0  0  0
   -0.4009    1.1535    0.0453 H   0  0  0  0  0  0  0  0  0  0  0  0
   -0.0653   -0.4800   -0.8035 H   0  0  0  0  0  0  0  0  0  0  0  0
    1.0530    0.8776   -0.4152 H   0  0  0  0  0  0  0  0  0  0  0  0
    2.2989   -0.7697   -0.7886 H   0  0  0  0  0  0  0  0  0  0  0  0
    2.8740    0.5244    0.5107 H   0  0  0  0  0  0  0  0  0  0  0  0
    3.9235   -0.5667   -0.3728 H   0  0  0  0  0  0  0  0  0  0  0  0
    2.9043   -2.8858   -0.4613 H   0  0  0  0  0  0  0  0  0  0  0  0
    5.3283   -4.8718    1.6541 H   0  0  0  0  0  0  0  0  0  0  0  0
    2.1440   -8.5977    2.3461 H   0  0  0  0  0  0  0  0  0  0  0  0
  1  2  1  0  0  0  0
  1 20  1  0  0  0  0
  1 21  1  0  0  0  0
  1 22  1  0  0  0  0
  2  3  1  0  0  0  0
  3  4  2  0  0  0  0
  3  5  1  0  0  0  0
  3  7  1  0  0  0  0
  5  6  1  0  0  0  0
  6 23  1  0  0  0  0
  6 24  1  0  0  0  0
  6 25  1  0  0  0  0
  7  8  1  0  0  0  0
  8  9  2  0  0  0  0
  8 11  1  0  0  0  0
  9 10  1  0  0  0  0
  9 26  1  0  0  0  0
 11 12  2  0  0  0  0
 11 16  1  0  0  0  0
 12 13  1  0  0  0  0
 12 27  1  0  0  0  0
 13 14  2  0  0  0  0
 13 19  1  0  0  0  0
 14 15  1  0  0  0  0
 14 18  1  0  0  0  0
 15 16  2  0  0  0  0
 15 28  1  0  0  0  0
 16 17  1  0  0  0  0
M  END
$$$$

 OpenBabel05152416213D

 44 43  0  0  0  0  0  0  0  0999 V2000
    0.7807   -0.3479    0.3206 C   0  0  0  0  0  0  0  0  0  0  0  0
    0.4386    0.8815    1.1772 C   0  0  0  0  0  0  0  0  0  0  0  0
    0.9864    2.2296    0.6287 C   0  0  0  0  0  0  0  0  0  0  0  0
    0.4170    2.5856   -0.7706 C   0  0  0  0  0  0  0  0  0  0  0  0
   -1.1211    2.6135   -0.7327 C   0  0  0  0  0  0  0  0  0  0  0  0
   -1.6230    3.6841    0.2608 C   0  0  0  0  0  0  0  0  0  0  0  0
   -1.0876    5.0538   -0.1523 C   0  0  0  0  0  0  0  0  0  0  0  0
   -1.5207    5.3582   -1.5806 C   0  0  0  0  0  0  0  0  0  0  0  0
   -3.0637    5.4648   -1.6991 C   0  0  0  0  0  0  0  0  0  0  0  0
   -3.6391    6.5389   -0.7786 C   0  0  0  0  0  0  0  0  0  0  0  0
   -3.1607    7.8781   -1.1738 N   0  0  0  0  0  0  0  0  0  0  0  0
   -2.2517    8.2537   -2.1071 C   0  0  0  0  0  0  0  0  0  0  0  0
   -2.1521    9.6015   -2.1144 C   0  0  0  0  0  0  0  0  0  0  0  0
   -3.0442   10.0775   -1.2525 N   0  3  0  0  0  0  0  0  0  0  0  0
   -3.6434    9.0175   -0.6604 C   0  0  0  0  0  0  0  0  0  0  0  0
   -3.3437   11.4737   -1.0591 C   0  0  0  0  0  0  0  0  0  0  0  0
    3.2196    0.8832   -1.4161 Cl  0  5  0  0  0  0  0  0  0  0  0  0
    0.4668   -0.2058   -0.7366 H   0  0  0  0  0  0  0  0  0  0  0  0
    0.2618   -1.2604    0.6778 H   0  0  0  0  0  0  0  0  0  0  0  0
    1.8613   -0.5725    0.4047 H   0  0  0  0  0  0  0  0  0  0  0  0
   -0.6619    0.9388    1.2785 H   0  0  0  0  0  0  0  0  0  0  0  0
    0.8241    0.7243    2.2013 H   0  0  0  0  0  0  0  0  0  0  0  0
    0.7254    3.0328    1.3512 H   0  0  0  0  0  0  0  0  0  0  0  0
    2.0902    2.2623    0.6198 H   0  0  0  0  0  0  0  0  0  0  0  0
    0.8541    3.5496   -1.1174 H   0  0  0  0  0  0  0  0  0  0  0  0
    0.7157    1.8879   -1.5686 H   0  0  0  0  0  0  0  0  0  0  0  0
   -1.5198    2.7648   -1.7530 H   0  0  0  0  0  0  0  0  0  0  0  0
   -1.5374    1.6273   -0.4866 H   0  0  0  0  0  0  0  0  0  0  0  0
   -2.7266    3.6723    0.3004 H   0  0  0  0  0  0  0  0  0  0  0  0
   -1.3210    3.4815    1.3024 H   0  0  0  0  0  0  0  0  0  0  0  0
   -1.3970    5.8465    0.5525 H   0  0  0  0  0  0  0  0  0  0  0  0
    0.0156    5.1215   -0.0893 H   0  0  0  0  0  0  0  0  0  0  0  0
   -0.9109    6.2161   -1.8093 H   0  0  0  0  0  0  0  0  0  0  0  0
   -1.1587    4.6612   -2.3582 H   0  0  0  0  0  0  0  0  0  0  0  0
   -3.3714    5.6946   -2.7378 H   0  0  0  0  0  0  0  0  0  0  0  0
   -3.5467    4.4896   -1.4666 H   0  0  0  0  0  0  0  0  0  0  0  0
   -4.7431    6.5042   -0.8478 H   0  0  0  0  0  0  0  0  0  0  0  0
   -3.4187    6.3430    0.2956 H   0  0  0  0  0  0  0  0  0  0  0  0
   -1.6729    7.6801   -2.7989 H   0  0  0  0  0  0  0  0  0  0  0  0
   -1.4972   10.1782   -2.7528 H   0  0  0  0  0  0  0  0  0  0  0  0
   -4.4268    9.0769    0.0781 H   0  0  0  0  0  0  0  0  0  0  0  0
   -4.3941   11.6425   -1.3734 H   0  0  0  0  0  0  0  0  0  0  0  0
   -3.1905   11.7446   -0.0007 H   0  0  0  0  0  0  0  0  0  0  0  0
   -2.6778   12.0787   -1.7137 H   0  0  0  0  0  0  0  0  0  0  0  0
  1  2  1  0  0  0  0
  1 18  1  0  0  0  0
  1 19  1  0  0  0  0
  1 20  1  0  0  0  0
  2  3  1  0  0  0  0
  2 21  1  0  0  0  0
  2 22  1  0  0  0  0
  3  4  1  0  0  0  0
  3 23  1  0  0  0  0
  3 24  1  0  0  0  0
  4  5  1  0  0  0  0
  4 25  1  0  0  0  0
  4 26  1  0  0  0  0
  5  6  1  0  0  0  0
  5 27  1  0  0  0  0
  5 28  1  0  0  0  0
  6  7  1  0  0  0  0
  6 29  1  0  0  0  0
  6 30  1  0  0  0  0
  7  8  1  0  0  0  0
  7 31  1  0  0  0  0
  7 32  1  0  0  0  0
  8  9  1  0  0  0  0
  8 33  1  0  0  0  0
  8 34  1  0  0  0  0
  9 10  1  0  0  0  0
  9 35  1  0  0  0  0
  9 36  1  0  0  0  0
 10 11  1  0  0  0  0
 10 37  1  0  0  0  0
 10 38  1  0  0  0  0
 11 12  1  0  0  0  0
 11 15  1  0  0  0  0
 12 13  2  0  0  0  0
 12 39  1  0  0  0  0
 13 14  1  0  0  0  0
 13 40  1  0  0  0  0
 14 15  2  0  0  0  0
 14 16  1  0  0  0  0
 15 41  1  0  0  0  0
 16 42  1  0  0  0  0
 16 43  1  0  0  0  0
 16 44  1  0  0  0  0
M  CHG  2  14   1  17  -1
M  END
$$$$

 OpenBabel05152416213D

 69 72  0  0  1  0  0  0  0  0999 V2000
   -2.5427    3.5736   -0.2528 C   0  0  0  0  0  0  0  0  0  0  0  0
   -2.2552    2.2034   -0.7398 C   0  0  1  0  0  0  0  0  0  0  0  0
   -3.3277    1.2005   -0.1565 C   0  0  2  0  0  0  0  0  0  0  0  0
   -3.0130   -0.1023   -0.7134 C   0  0  2  0  0  0  0  0  0  0  0  0
   -2.7927   -0.1627   -2.3259 C   0  0  0  0  0  0  0  0  0  0  0  0
   -1.6416    0.8117   -2.6981 C   0  0  1  0  0  0  0  0  0  0  0  0
   -1.9770    2.1245   -2.1759 O   0  0  0  0  0  0  0  0  0  0  0  0
   -0.2496    0.3701   -2.4780 O   0  0  0  0  0  0  0  0  0  0  0  0
   -0.0626   -0.0499   -1.1496 C   0  0  1  0  0  0  0  0  0  0  0  0
   -0.7169   -1.3896   -0.7433 C   0  0  0  0  0  0  0  0  0  0  0  0
   -0.1578   -2.6268   -1.1219 C   0  0  1  0  0  0  0  0  0  0  0  0
    0.8108   -2.8239   -0.0187 C   0  0  0  0  0  0  0  0  0  0  0  0
    1.6004   -1.5525    0.1941 C   0  0  0  0  0  0  0  0  0  0  0  0
    1.1819   -0.0700   -0.4279 C   0  0  0  0  0  0  0  0  0  0  0  0
    1.9001    1.3174    0.0940 C   0  0  0  0  0  0  0  0  0  0  0  0
    3.1104    1.1453    1.1725 C   0  0  0  0  0  0  0  0  0  0  0  0
    3.5122   -0.3492    1.7322 C   0  0  0  0  0  0  0  0  0  0  0  0
    2.7359   -1.6654    1.2583 C   0  0  0  0  0  0  0  0  0  0  0  0
    3.0209   -2.8610    1.7977 O   0  0  0  0  0  0  0  0  0  0  0  0
    4.6707   -0.5296    2.4737 C   0  0  0  0  0  0  0  0  0  0  0  0
    5.0296   -1.6621    2.7643 O   0  0  0  0  0  0  0  0  0  0  0  0
    5.5114    0.6280    2.7010 C   0  0  0  0  0  0  0  0  0  0  0  0
    5.1614    1.9445    2.2769 C   0  0  0  0  0  0  0  0  0  0  0  0
    3.9307    2.2262    1.5502 C   0  0  0  0  0  0  0  0  0  0  0  0
    3.6825    3.3451    1.1462 O   0  0  0  0  0  0  0  0  0  0  0  0
    6.0198    3.0092    2.5453 C   0  0  0  0  0  0  0  0  0  0  0  0
    7.1951    2.7564    3.2439 C   0  0  0  0  0  0  0  0  0  0  0  0
    7.5282    1.4720    3.6447 C   0  0  0  0  0  0  0  0  0  0  0  0
    6.6993    0.4093    3.3630 C   0  0  0  0  0  0  0  0  0  0  0  0
    5.6929    4.2644    2.1379 O   0  0  0  0  0  0  0  0  0  0  0  0
    6.4395    5.3863    2.3793 C   0  0  0  0  0  0  0  0  0  0  0  0
    1.4672    2.5694   -0.2758 O   0  0  0  0  0  0  0  0  0  0  0  0
   -1.3071   -3.6791   -1.1556 C   0  0  0  0  0  0  0  0  0  0  0  0
   -1.6141   -4.1149   -2.2522 O   0  0  0  0  0  0  0  0  0  0  0  0
   -2.2132   -4.0431    0.0399 C   0  0  0  0  0  0  0  0  0  0  0  0
    0.4857   -2.4707   -2.3807 O   0  0  0  0  0  0  0  0  0  0  0  0
   -3.7987   -1.2150   -0.2271 N   0  0  0  0  0  0  0  0  0  0  0  0
   -4.6304    1.4707   -0.5189 O   0  0  0  0  0  0  0  0  0  0  0  0
    1.0617    0.0232    2.0272 Cl  0  0  0  0  0  0  0  0  0  0  0  0
   -2.1584    4.2590   -1.0199 H   0  0  0  0  0  0  0  0  0  0  0  0
   -2.0366    3.7753    0.7392 H   0  0  0  0  0  0  0  0  0  0  0  0
   -3.6191    3.6270   -0.0582 H   0  0  0  0  0  0  0  0  0  0  0  0
   -1.3318    2.1761   -0.1855 H   0  0  0  0  0  0  0  0  0  0  0  0
   -3.2698    1.2137    0.9975 H   0  0  0  0  0  0  0  0  0  0  0  0
   -2.1800    0.0037   -0.0488 H   0  0  0  0  0  0  0  0  0  0  0  0
   -2.5257   -1.1457   -2.8339 H   0  0  0  0  0  0  0  0  0  0  0  0
   -3.7518   -0.0488   -2.8277 H   0  0  0  0  0  0  0  0  0  0  0  0
   -1.6763    0.8189   -3.8168 H   0  0  0  0  0  0  0  0  0  0  0  0
   -0.2460    0.8285   -0.6945 H   0  0  0  0  0  0  0  0  0  0  0  0
   -1.3844   -1.4806   -1.3814 H   0  0  0  0  0  0  0  0  0  0  0  0
   -1.0941   -1.5001    0.3247 H   0  0  0  0  0  0  0  0  0  0  0  0
    0.2700   -2.9646    0.9683 H   0  0  0  0  0  0  0  0  0  0  0  0
    1.3946   -3.6982   -0.2561 H   0  0  0  0  0  0  0  0  0  0  0  0
    2.5111   -3.6536    1.5911 H   0  0  0  0  0  0  0  0  0  0  0  0
    7.8575    3.5597    3.4847 H   0  0  0  0  0  0  0  0  0  0  0  0
    8.4338    1.3029    4.1865 H   0  0  0  0  0  0  0  0  0  0  0  0
    6.9709   -0.5899    3.6749 H   0  0  0  0  0  0  0  0  0  0  0  0
    6.5295    5.5178    3.4764 H   0  0  0  0  0  0  0  0  0  0  0  0
    7.4367    5.2591    1.9119 H   0  0  0  0  0  0  0  0  0  0  0  0
    5.9435    6.2765    1.9449 H   0  0  0  0  0  0  0  0  0  0  0  0
    1.7889    3.4219    0.0583 H   0  0  0  0  0  0  0  0  0  0  0  0
   -1.6278   -4.2205    0.9552 H   0  0  0  0  0  0  0  0  0  0  0  0
   -2.9628   -3.3809    0.4689 H   0  0  0  0  0  0  0  0  0  0  0  0
   -2.9260   -4.8215   -0.2827 H   0  0  0  0  0  0  0  0  0  0  0  0
   -0.1461   -2.0315   -3.0247 H   0  0  0  0  0  0  0  0  0  0  0  0
   -3.4663   -1.4343    0.7520 H   0  0  0  0  0  0  0  0  0  0  0  0
   -3.5578   -2.0094   -0.8692 H   0  0  0  0  0  0  0  0  0  0  0  0
   -4.6461    1.3985   -1.5012 H   0  0  0  0  0  0  0  0  0  0  0  0
    3.0322   -0.2870   -0.1874 H   0  0  0  0  0  0  0  0  0  0  0  0
  1 40  1  0  0  0  0
  1 41  1  0  0  0  0
  1 42  1  0  0  0  0
  2  3  1  0  0  0  0
  2  7  1  0  0  0  0
  2 43  1  1  0  0  0
  2  1  1  0  0  0  0
  3  4  1  0  0  0  0
  3 44  1  1  0  0  0
  3 38  1  0  0  0  0
  4  5  1  0  0  0  0
  4 45  1  1  0  0  0
  4 37  1  0  0  0  0
  5  6  1  0  0  0  0
  5 46  1  0  0  0  0
  5 47  1  0  0  0  0
  6  7  1  0  0  0  0
  6  8  1  0  0  0  0
  6 48  1  6  0  0  0
  9 10  1  0  0  0  0
  9 14  1  0  0  0  0
  9 49  1  1  0  0  0
  9  8  1  0  0  0  0
 10 11  1  0  0  0  0
 10 50  1  0  0  0  0
 10 51  1  0  0  0  0
 11 12  1  0  0  0  0
 11 33  1  6  0  0  0
 11 36  1  0  0  0  0
 12 13  1  0  0  0  0
 12 52  1  0  0  0  0
 12 53  1  0  0  0  0
 13 14  2  0  0  0  0
 13 18  1  0  0  0  0
 14 15  1  0  0  0  0
 15 16  2  0  0  0  0
 15 32  1  0  0  0  0
 16 17  1  0  0  0  0
 16 24  1  0  0  0  0
 17 18  2  0  0  0  0
 17 20  1  0  0  0  0
 18 19  1  0  0  0  0
 19 54  1  0  0  0  0
 20 21  2  0  0  0  0
 20 22  1  0  0  0  0
 22 23  2  0  0  0  0
 22 29  1  0  0  0  0
 23 24  1  0  0  0  0
 23 26  1  0  0  0  0
 24 25  2  0  0  0  0
 26 27  2  0  0  0  0
 26 30  1  0  0  0  0
 27 28  1  0  0  0  0
 27 55  1  0  0  0  0
 28 29  2  0  0  0  0
 28 56  1  0  0  0  0
 29 57  1  0  0  0  0
 30 31  1  0  0  0  0
 31 58  1  0  0  0  0
 31 59  1  0  0  0  0
 31 60  1  0  0  0  0
 32 61  1  0  0  0  0
 33 34  2  0  0  0  0
 33 35  1  0  0  0  0
 35 62  1  0  0  0  0
 35 63  1  0  0  0  0
 35 64  1  0  0  0  0
 36 65  1  0  0  0  0
 37 66  1  0  0  0  0
 37 67  1  0  0  0  0
 38 68  1  0  0  0  0
 39 69  1  0  0  0  0
M  END
$$$$

 OpenBabel05152416213D

 29 29  0  0  0  0  0  0  0  0999 V2000
    0.9112   -0.2158   -0.3667 C   0  0  0  0  0  0  0  0  0  0  0  0
    0.4352    1.2065   -0.1126 C   0  0  0  0  0  0  0  0  0  0  0  0
    0.9099    2.2893   -0.9622 O   0  0  0  0  0  0  0  0  0  0  0  0
    2.6399    2.2893   -0.9622 P   0  0  0  0  0  0  0  0  0  0  0  0
    2.6390    3.4282   -2.0162 O   0  0  0  0  0  0  0  0  0  0  0  0
    2.6171    3.4522    0.4361 O   0  0  0  0  0  0  0  0  0  0  0  0
    1.3997    3.7596    1.1387 C   0  0  0  0  0  0  0  0  0  0  0  0
    0.5086    4.7033    0.3521 C   0  0  0  0  0  0  0  0  0  0  0  0
    4.3699    2.2893   -0.9622 O   0  0  0  0  0  0  0  0  0  0  0  0
    5.0934    2.7227    0.1144 C   0  0  0  0  0  0  0  0  0  0  0  0
    6.0809    3.6615   -0.0941 N   0  0  0  0  0  0  0  0  0  0  0  0
    6.7509    4.2517    0.9201 C   0  0  0  0  0  0  0  0  0  0  0  0
    6.4489    3.9397    2.2548 C   0  0  0  0  0  0  0  0  0  0  0  0
    5.4831    2.9648    2.5094 C   0  0  0  0  0  0  0  0  0  0  0  0
    4.8243    2.3348    1.4582 C   0  0  0  0  0  0  0  0  0  0  0  0
    3.6445    1.0924    1.8925 Cl  0  0  0  0  0  0  0  0  0  0  0  0
    7.2505    4.7244    3.6073 Cl  0  0  0  0  0  0  0  0  0  0  0  0
    7.9914    5.4437    0.5472 Cl  0  0  0  0  0  0  0  0  0  0  0  0
    0.5752   -0.5955   -1.3389 H   0  0  0  0  0  0  0  0  0  0  0  0
    0.5002   -0.8609    0.4541 H   0  0  0  0  0  0  0  0  0  0  0  0
    2.0155   -0.2721   -0.2507 H   0  0  0  0  0  0  0  0  0  0  0  0
   -0.6750    1.2604   -0.0597 H   0  0  0  0  0  0  0  0  0  0  0  0
    0.7974    1.2328    0.9155 H   0  0  0  0  0  0  0  0  0  0  0  0
    0.7859    2.9822    1.5728 H   0  0  0  0  0  0  0  0  0  0  0  0
    1.6559    4.1525    2.1426 H   0  0  0  0  0  0  0  0  0  0  0  0
    0.3888    4.4321   -0.7117 H   0  0  0  0  0  0  0  0  0  0  0  0
   -0.5163    4.6828    0.7837 H   0  0  0  0  0  0  0  0  0  0  0  0
    0.9828    5.6928    0.3663 H   0  0  0  0  0  0  0  0  0  0  0  0
    5.2436    2.7097    3.5356 H   0  0  0  0  0  0  0  0  0  0  0  0
  1  2  1  0  0  0  0
  1 19  1  0  0  0  0
  1 20  1  0  0  0  0
  1 21  1  0  0  0  0
  2  3  1  0  0  0  0
  2 22  1  0  0  0  0
  2 23  1  0  0  0  0
  3  4  1  0  0  0  0
  4  5  2  0  0  0  0
  4  6  1  0  0  0  0
  4  9  1  0  0  0  0
  6  7  1  0  0  0  0
  7  8  1  0  0  0  0
  7 24  1  0  0  0  0
  7 25  1  0  0  0  0
  8 26  1  0  0  0  0
  8 27  1  0  0  0  0
  8 28  1  0  0  0  0
  9 10  1  0  0  0  0
 10 11  2  0  0  0  0
 10 15  1  0  0  0  0
 11 12  1  0  0  0  0
 12 13  2  0  0  0  0
 12 18  1  0  0  0  0
 13 14  1  0  0  0  0
 13 17  1  0  0  0  0
 14 15  2  0  0  0  0
 14 29  1  0  0  0  0
 15 16  1  0  0  0  0
M  END
$$$$

 OpenBabel05152416213D

 45 44  0  0  0  0  0  0  0  0999 V2000
    0.9103   -1.0114    0.7033 C   0  0  0  0  0  0  0  0  0  0  0  0
    0.8296   -0.0485   -1.7422 C   0  0  0  0  0  0  0  0  0  0  0  0
    1.0682   -1.1003   -2.5593 C   0  0  0  0  0  0  0  0  0  0  0  0
    0.5324   -2.4482   -1.9038 C   0  0  0  0  0  0  0  0  0  0  0  0
   -1.0293   -2.4415   -1.8048 C   0  0  0  0  0  0  0  0  0  0  0  0
   -1.4883   -2.1071   -3.1686 C   0  0  0  0  0  0  0  0  0  0  0  0
   -1.1043   -3.2334   -4.1112 C   0  0  0  0  0  0  0  0  0  0  0  0
   -1.6170   -4.5666   -3.5766 C   0  0  0  0  0  0  0  0  0  0  0  0
   -3.0852   -4.5523   -3.5362 N   0  0  0  0  0  0  0  0  0  0  0  0
   -3.9734   -3.5213   -3.6457 C   0  0  0  0  0  0  0  0  0  0  0  0
   -5.2095   -3.9512   -3.5465 C   0  0  0  0  0  0  0  0  0  0  0  0
   -5.1604   -5.2723   -3.4687 N   0  3  0  0  0  0  0  0  0  0  0  0
   -3.8640   -5.6356   -3.4469 C   0  0  0  0  0  0  0  0  0  0  0  0
   -6.3207   -6.1048   -3.4630 C   0  0  0  0  0  0  0  0  0  0  0  0
    1.0528    1.1539    0.2069 C   0  0  0  0  0  0  0  0  0  0  0  0
    1.2964    1.3449    1.6308 F   0  0  0  0  0  0  0  0  0  0  0  0
    0.9061    2.2961   -0.4156 F   0  0  0  0  0  0  0  0  0  0  0  0
   -0.6954   -0.1322   -0.2392 F   0  0  0  0  0  0  0  0  0  0  0  0
    3.0805    0.4145   -0.1477 S   0  0  0  0  0  0  0  0  0  0  0  0
    3.7417    1.3852    0.8637 O   0  0  0  0  0  0  0  0  0  0  0  0
    3.7376   -0.9840    0.3458 O   0  0  0  0  0  0  0  0  0  0  0  0
    3.6464    0.5785   -1.7997 O   0  5  0  0  0  0  0  0  0  0  0  0
    0.3844   -1.7749    1.2538 H   0  0  0  0  0  0  0  0  0  0  0  0
   -0.0427   -0.1305    1.4695 H   0  0  0  0  0  0  0  0  0  0  0  0
    1.8126   -1.2181    0.9242 H   0  0  0  0  0  0  0  0  0  0  0  0
   -0.4230    0.5740   -1.9712 H   0  0  0  0  0  0  0  0  0  0  0  0
    0.9084    1.1408   -2.3657 H   0  0  0  0  0  0  0  0  0  0  0  0
    0.7532   -0.8612   -3.6118 H   0  0  0  0  0  0  0  0  0  0  0  0
    2.1217   -1.0796   -2.4258 H   0  0  0  0  0  0  0  0  0  0  0  0
    0.9577   -3.3404   -2.4706 H   0  0  0  0  0  0  0  0  0  0  0  0
    0.9225   -2.7458   -0.9151 H   0  0  0  0  0  0  0  0  0  0  0  0
   -1.4670   -3.3337   -1.3070 H   0  0  0  0  0  0  0  0  0  0  0  0
   -1.6881   -1.7930   -1.1973 H   0  0  0  0  0  0  0  0  0  0  0  0
   -2.4621   -1.8288   -2.9648 H   0  0  0  0  0  0  0  0  0  0  0  0
   -1.2330   -1.1170   -3.5525 H   0  0  0  0  0  0  0  0  0  0  0  0
   -1.4843   -3.0405   -5.1144 H   0  0  0  0  0  0  0  0  0  0  0  0
   -0.0106   -3.2571   -4.2294 H   0  0  0  0  0  0  0  0  0  0  0  0
   -1.2303   -5.3661   -4.2206 H   0  0  0  0  0  0  0  0  0  0  0  0
   -1.2014   -4.8412   -2.5767 H   0  0  0  0  0  0  0  0  0  0  0  0
   -3.9236   -2.4885   -3.8136 H   0  0  0  0  0  0  0  0  0  0  0  0
   -6.0706   -3.3053   -3.5815 H   0  0  0  0  0  0  0  0  0  0  0  0
   -3.5050   -6.6537   -3.4130 H   0  0  0  0  0  0  0  0  0  0  0  0
   -6.2900   -6.7417   -4.3652 H   0  0  0  0  0  0  0  0  0  0  0  0
   -6.3109   -6.6984   -2.5409 H   0  0  0  0  0  0  0  0  0  0  0  0
   -7.2263   -5.4610   -3.4997 H   0  0  0  0  0  0  0  0  0  0  0  0
  1  2  1  0  0  0  0
  1 23  1  0  0  0  0
  1 24  1  0  0  0  0
  1 25  1  0  0  0  0
  2  3  1  0  0  0  0
  2 26  1  0  0  0  0
  2 27  1  0  0  0  0
  3  4  1  0  0  0  0
  3 28  1  0  0  0  0
  3 29  1  0  0  0  0
  4  5  1  0  0  0  0
  4 30  1  0  0  0  0
  4 31  1  0  0  0  0
  5  6  1  0  0  0  0
  5 32  1  0  0  0  0
  5 33  1  0  0  0  0
  6  7  1  0  0  0  0
  6 34  1  0  0  0  0
  6 35  1  0  0  0  0
  7  8  1  0  0  0  0
  7 36  1  0  0  0  0
  7 37  1  0  0  0  0
  8  9  1  0  0  0  0
  8 38  1  0  0  0  0
  8 39  1  0  0  0  0
  9 10  1  0  0  0  0
  9 13  1  0  0  0  0
 10 11  2  0  0  0  0
 10 40  1  0  0  0  0
 11 12  1  0  0  0  0
 11 41  1  0  0  0  0
 12 13  2  0  0  0  0
 12 14  1  0  0  0  0
 13 42  1  0  0  0  0
 14 43  1  0  0  0  0
 14 44  1  0  0  0  0
 14 45  1  0  0  0  0
 15 16  1  0  0  0  0
 15 17  1  0  0  0  0
 15 18  1  0  0  0  0
 15 19  1  0  0  0  0
 19 20  2  0  0  0  0
 19 21  2  0  0  0  0
 19 22  1  0  0  0  0
M  CHG  2  12   1  22  -1
M  END
$$$$

 OpenBabel05152416213D

 33 34  0  0  0  0  0  0  0  0999 V2000
   -0.2751   -1.2583   -0.0310 C   0  0  0  0  0  0  0  0  0  0  0  0
   -1.6783   -1.2722   -0.0249 C   0  0  0  0  0  0  0  0  0  0  0  0
   -2.3607   -0.0499   -0.0256 C   0  0  0  0  0  0  0  0  0  0  0  0
   -1.6669    1.1148   -0.0431 N   0  0  0  0  0  0  0  0  0  0  0  0
   -0.3035    1.1537   -0.0412 C   0  0  0  0  0  0  0  0  0  0  0  0
    0.4197   -0.0496   -0.0363 C   0  0  0  0  0  0  0  0  0  0  0  0
    2.1794   -0.0824   -0.0211 Cl  0  0  0  0  0  0  0  0  0  0  0  0
    0.3694    2.4090   -0.0237 N   0  0  0  0  0  0  0  0  0  0  0  0
   -0.3370    3.6435   -0.0499 C   0  0  0  0  0  0  0  0  0  0  0  0
   -1.2361    3.9638    1.0113 C   0  0  0  0  0  0  0  0  0  0  0  0
   -1.9236    5.1848    0.9558 C   0  0  0  0  0  0  0  0  0  0  0  0
   -1.7643    6.0933   -0.1026 C   0  0  0  0  0  0  0  0  0  0  0  0
   -0.8766    5.7740   -1.1639 C   0  0  0  0  0  0  0  0  0  0  0  0
   -0.1354    4.5491   -1.1479 C   0  0  0  0  0  0  0  0  0  0  0  0
    0.7726    4.2139   -2.2351 N   0  3  0  0  0  0  0  0  0  0  0  0
    1.3597    3.1759   -2.2540 O   0  0  0  0  0  0  0  0  0  0  0  0
    0.9753    5.0243   -3.2476 O   0  5  0  0  0  0  0  0  0  0  0  0
   -0.7102    6.9104   -2.5163 Cl  0  0  0  0  0  0  0  0  0  0  0  0
   -2.5718    7.3905   -0.0154 C   0  0  0  0  0  0  0  0  0  0  0  0
   -3.9188    7.0900    0.0524 F   0  0  0  0  0  0  0  0  0  0  0  0
   -2.2056    8.0727    1.1299 F   0  0  0  0  0  0  0  0  0  0  0  0
   -2.4017    8.2594   -1.0731 F   0  0  0  0  0  0  0  0  0  0  0  0
   -1.4342    3.1155    2.1659 N   0  3  0  0  0  0  0  0  0  0  0  0
   -0.7467    2.1587    2.3666 O   0  0  0  0  0  0  0  0  0  0  0  0
   -2.3133    3.4411    3.0877 O   0  5  0  0  0  0  0  0  0  0  0  0
   -2.4558   -2.5583   -0.0237 C   0  0  0  0  0  0  0  0  0  0  0  0
   -3.2456   -2.6226    1.1096 F   0  0  0  0  0  0  0  0  0  0  0  0
   -3.2639   -2.5980   -1.1448 F   0  0  0  0  0  0  0  0  0  0  0  0
   -1.6163   -3.6584   -0.0442 F   0  0  0  0  0  0  0  0  0  0  0  0
    0.2877   -2.1813   -0.0251 H   0  0  0  0  0  0  0  0  0  0  0  0
   -3.4435   -0.0207   -0.0100 H   0  0  0  0  0  0  0  0  0  0  0  0
    1.3933    2.4332   -0.1136 H   0  0  0  0  0  0  0  0  0  0  0  0
   -2.5952    5.4450    1.7665 H   0  0  0  0  0  0  0  0  0  0  0  0
  1  2  2  0  0  0  0
  1  6  1  0  0  0  0
  1 30  1  0  0  0  0
  2  3  1  0  0  0  0
  2 26  1  0  0  0  0
  3  4  2  0  0  0  0
  3 31  1  0  0  0  0
  4  5  1  0  0  0  0
  5  6  2  0  0  0  0
  5  8  1  0  0  0  0
  6  7  1  0  0  0  0
  8  9  1  0  0  0  0
  8 32  1  0  0  0  0
  9 10  2  0  0  0  0
  9 14  1  0  0  0  0
 10 11  1  0  0  0  0
 10 23  1  0  0  0  0
 11 12  2  0  0  0  0
 11 33  1  0  0  0  0
 12 13  1  0  0  0  0
 12 19  1  0  0  0  0
 13 14  2  0  0  0  0
 13 18  1  0  0  0  0
 14 15  1  0  0  0  0
 15 16  2  0  0  0  0
 15 17  1  0  0  0  0
 19 20  1  0  0  0  0
 19 21  1  0  0  0  0
 19 22  1  0  0  0  0
 23 24  2  0  0  0  0
 23 25  1  0  0  0  0
 26 27  1  0  0  0  0
 26 28  1  0  0  0  0
 26 29  1  0  0  0  0
M  CHG  4  15   1  17  -1  23   1  25  -1
M  END
$$$$

 OpenBabel05152416213D

 63 65  0  0  1  0  0  0  0  0999 V2000
    3.9309   -1.8684   -3.3214 C   0  0  0  0  0  0  0  0  0  0  0  0
    3.9190   -1.1879   -1.9847 C   0  0  0  0  0  0  0  0  0  0  0  0
    4.9442   -0.6292   -1.6600 O   0  0  0  0  0  0  0  0  0  0  0  0
    2.9392   -1.3004   -1.0355 O   0  0  0  0  0  0  0  0  0  0  0  0
    2.0623   -2.3390   -0.7467 C   0  0  1  0  0  0  0  0  0  0  0  0
    0.7541   -2.0421   -1.4574 C   0  0  2  0  0  0  0  0  0  0  0  0
    0.7392   -2.3704   -3.1213 C   0  0  2  0  0  0  0  0  0  0  0  0
    1.7115   -3.7852   -3.3091 C   0  0  2  0  0  0  0  0  0  0  0  0
    2.0965   -4.0922   -4.9284 C   0  0  2  0  0  0  0  0  0  0  0  0
    0.8054   -4.2504   -5.7283 C   0  0  0  0  0  0  0  0  0  0  0  0
   -0.1400   -2.9904   -5.5123 C   0  0  0  0  0  0  0  0  0  0  0  0
   -0.8336   -2.5427   -4.0527 C   0  0  0  0  0  0  0  0  0  0  0  0
   -2.1272   -3.5769   -4.3434 C   0  0  0  0  0  0  0  0  0  0  0  0
   -1.6243   -2.3783   -2.6718 C   0  0  0  0  0  0  0  0  0  0  0  0
    2.8502   -5.2189   -5.3698 O   0  0  0  0  0  0  0  0  0  0  0  0
    2.8747   -4.5506   -2.1615 C   0  0  2  0  0  0  0  0  0  0  0  0
    2.7039   -3.8508   -0.7875 C   0  0  2  0  0  0  0  0  0  0  0  0
    2.1678   -4.9244    0.0848 O   0  0  0  0  0  0  0  0  0  0  0  0
    0.9237   -5.5326   -0.3780 C   0  0  1  0  0  0  0  0  0  0  0  0
    1.3646   -6.4789   -1.8343 C   0  0  0  0  0  0  0  0  0  0  0  0
    2.4970   -5.8300   -2.6899 C   0  0  0  0  0  0  0  0  0  0  0  0
    3.3505   -6.4189   -3.4934 O   0  0  0  0  0  0  0  0  0  0  0  0
   -0.3923   -6.3417   -0.0157 C   0  0  0  0  0  0  0  0  0  0  0  0
    0.2944   -4.4121    0.5136 C   0  0  0  0  0  0  0  0  0  0  0  0
    0.6260   -4.1916    1.8252 C   0  0  0  0  0  0  0  0  0  0  0  0
    4.2259   -3.5156   -0.3423 C   0  0  0  0  0  0  0  0  0  0  0  0
    3.8029   -5.5523   -1.4993 O   0  0  0  0  0  0  0  0  0  0  0  0
    0.4947   -4.4300   -2.9386 C   0  0  0  0  0  0  0  0  0  0  0  0
   -0.0372   -1.1083   -0.6803 O   0  0  0  0  0  0  0  0  0  0  0  0
    4.7863   -2.4870   -3.6219 H   0  0  0  0  0  0  0  0  0  0  0  0
    3.1293   -1.6223   -4.0262 H   0  0  0  0  0  0  0  0  0  0  0  0
    3.8851   -2.8868   -3.1551 H   0  0  0  0  0  0  0  0  0  0  0  0
    1.8570   -2.2074    0.3530 H   0  0  0  0  0  0  0  0  0  0  0  0
    0.2478   -2.7883   -1.2200 H   0  0  0  0  0  0  0  0  0  0  0  0
    1.1783   -1.4185   -3.5062 H   0  0  0  0  0  0  0  0  0  0  0  0
    2.7084   -3.2531   -5.2511 H   0  0  0  0  0  0  0  0  0  0  0  0
    0.6294   -4.9944   -6.5644 H   0  0  0  0  0  0  0  0  0  0  0  0
    0.4821   -5.2769   -5.4410 H   0  0  0  0  0  0  0  0  0  0  0  0
   -0.8342   -3.0729   -6.3936 H   0  0  0  0  0  0  0  0  0  0  0  0
    0.4701   -2.1283   -5.8020 H   0  0  0  0  0  0  0  0  0  0  0  0
   -3.1578   -3.4674   -3.8941 H   0  0  0  0  0  0  0  0  0  0  0  0
   -2.5224   -3.4911   -5.3627 H   0  0  0  0  0  0  0  0  0  0  0  0
   -2.0594   -4.6678   -4.1814 H   0  0  0  0  0  0  0  0  0  0  0  0
   -1.4175   -1.3632   -2.3615 H   0  0  0  0  0  0  0  0  0  0  0  0
   -2.6650   -2.3594   -2.2763 H   0  0  0  0  0  0  0  0  0  0  0  0
   -1.5299   -3.2786   -2.0224 H   0  0  0  0  0  0  0  0  0  0  0  0
    3.8053   -4.9916   -5.5611 H   0  0  0  0  0  0  0  0  0  0  0  0
    0.5585   -6.7504   -2.6091 H   0  0  0  0  0  0  0  0  0  0  0  0
    0.4391   -6.6994   -2.4743 H   0  0  0  0  0  0  0  0  0  0  0  0
   -1.1078   -6.1828   -0.8850 H   0  0  0  0  0  0  0  0  0  0  0  0
   -0.1777   -7.3964    0.1021 H   0  0  0  0  0  0  0  0  0  0  0  0
   -1.1405   -6.0763    0.8054 H   0  0  0  0  0  0  0  0  0  0  0  0
   -0.4486   -3.7577    0.1944 H   0  0  0  0  0  0  0  0  0  0  0  0
    0.2577   -3.3055    2.3275 H   0  0  0  0  0  0  0  0  0  0  0  0
    1.3290   -4.8450    2.3471 H   0  0  0  0  0  0  0  0  0  0  0  0
    4.3583   -2.6971    0.3792 H   0  0  0  0  0  0  0  0  0  0  0  0
    4.8732   -4.3645   -0.0555 H   0  0  0  0  0  0  0  0  0  0  0  0
    4.8249   -3.2534   -1.2419 H   0  0  0  0  0  0  0  0  0  0  0  0
    3.4739   -6.3016   -0.8262 H   0  0  0  0  0  0  0  0  0  0  0  0
   -0.3041   -4.8247   -3.4487 H   0  0  0  0  0  0  0  0  0  0  0  0
    0.0705   -4.4308   -2.0368 H   0  0  0  0  0  0  0  0  0  0  0  0
   -0.0464   -4.8378   -3.6998 H   0  0  0  0  0  0  0  0  0  0  0  0
   -0.4127   -1.5742    0.1661 H   0  0  0  0  0  0  0  0  0  0  0  0
  1  2  1  0  0  0  0
  1 30  1  0  0  0  0
  1 31  1  0  0  0  0
  1 32  1  0  0  0  0
  2  3  2  0  0  0  0
  2  4  1  0  0  0  0
  5  6  1  0  0  0  0
  5 17  1  0  0  0  0
  5 33  1  1  0  0  0
  5  4  1  0  0  0  0
  6  7  1  0  0  0  0
  6 34  1  1  0  0  0
  6 29  1  0  0  0  0
  7  8  1  0  0  0  0
  7 12  1  0  0  0  0
  7 35  1  1  0  0  0
  8  9  1  0  0  0  0
  8 16  1  0  0  0  0
  8 28  1  6  0  0  0
  9 10  1  0  0  0  0
  9 15  1  0  0  0  0
  9 36  1  6  0  0  0
 10 11  1  0  0  0  0
 10 37  1  0  0  0  0
 10 38  1  0  0  0  0
 11 12  1  0  0  0  0
 11 39  1  0  0  0  0
 11 40  1  0  0  0  0
 12 13  1  0  0  0  0
 12 14  1  0  0  0  0
 13 41  1  0  0  0  0
 13 42  1  0  0  0  0
 13 43  1  0  0  0  0
 14 44  1  0  0  0  0
 14 45  1  0  0  0  0
 14 46  1  0  0  0  0
 15 47  1  0  0  0  0
 16 17  1  0  0  0  0
 16 21  1  0  0  0  0
 16 27  1  1  0  0  0
 17 18  1  0  0  0  0
 17 26  1  1  0  0  0
 18 19  1  0  0  0  0
 19 20  1  0  0  0  0
 19 23  1  0  0  0  0
 19 24  1  6  0  0  0
 20 21  1  0  0  0  0
 20 48  1  0  0  0  0
 20 49  1  0  0  0  0
 21 22  2  0  0  0  0
 23 50  1  0  0  0  0
 23 51  1  0  0  0  0
 23 52  1  0  0  0  0
 24 25  2  0  0  0  0
 24 53  1  0  0  0  0
 25 54  1  0  0  0  0
 25 55  1  0  0  0  0
 26 56  1  0  0  0  0
 26 57  1  0  0  0  0
 26 58  1  0  0  0  0
 27 59  1  0  0  0  0
 28 60  1  0  0  0  0
 28 61  1  0  0  0  0
 28 62  1  0  0  0  0
 29 63  1  0  0  0  0
M  END
$$$$

 OpenBabel05152416213D

 64 68  0  0  1  0  0  0  0  0999 V2000
    0.0827    4.3795    2.6039 C   0  0  0  0  0  0  0  0  0  0  0  0
    1.2256    3.5101    2.1248 C   0  0  1  0  0  0  0  0  0  0  0  0
    2.2371    4.4474    1.3159 C   0  0  2  0  0  0  0  0  0  0  0  0
    3.3803    3.6178    0.8672 C   0  0  2  0  0  0  0  0  0  0  0  0
    3.9876    2.6532    1.9403 C   0  0  0  0  0  0  0  0  0  0  0  0
    2.8260    1.8103    2.5146 C   0  0  1  0  0  0  0  0  0  0  0  0
    1.8585    2.6997    3.1133 O   0  0  0  0  0  0  0  0  0  0  0  0
    2.2817    0.7106    1.6986 O   0  0  0  0  0  0  0  0  0  0  0  0
    1.9059    0.9308    0.3173 C   0  0  1  0  0  0  0  0  0  0  0  0
    3.0322    1.2645   -0.6445 C   0  0  0  0  0  0  0  0  0  0  0  0
    3.8958    0.2510   -1.1607 C   0  0  1  0  0  0  0  0  0  0  0  0
    2.9883   -0.4432   -2.1002 C   0  0  0  0  0  0  0  0  0  0  0  0
    1.6314   -0.7997   -1.4566 C   0  0  0  0  0  0  0  0  0  0  0  0
    1.1282   -0.1698   -0.2852 C   0  0  0  0  0  0  0  0  0  0  0  0
   -0.1471   -0.4595    0.2434 C   0  0  0  0  0  0  0  0  0  0  0  0
   -0.9159   -1.4478   -0.4191 C   0  0  0  0  0  0  0  0  0  0  0  0
   -0.3902   -2.0643   -1.5840 C   0  0  0  0  0  0  0  0  0  0  0  0
    0.8623   -1.7160   -2.1141 C   0  0  0  0  0  0  0  0  0  0  0  0
    1.3170   -2.2682   -3.2585 O   0  0  0  0  0  0  0  0  0  0  0  0
   -1.1420   -3.1134   -2.2888 C   0  0  0  0  0  0  0  0  0  0  0  0
   -0.6848   -3.6576   -3.2739 O   0  0  0  0  0  0  0  0  0  0  0  0
   -2.4351   -3.5395   -1.7633 C   0  0  0  0  0  0  0  0  0  0  0  0
   -2.9954   -2.9368   -0.6305 C   0  0  0  0  0  0  0  0  0  0  0  0
   -2.2688   -1.8522    0.0706 C   0  0  0  0  0  0  0  0  0  0  0  0
   -2.7739   -1.3350    1.0402 O   0  0  0  0  0  0  0  0  0  0  0  0
   -4.2473   -3.3791   -0.1560 C   0  0  0  0  0  0  0  0  0  0  0  0
   -4.9003   -4.4185   -0.8277 C   0  0  0  0  0  0  0  0  0  0  0  0
   -4.3266   -5.0113   -1.9491 C   0  0  0  0  0  0  0  0  0  0  0  0
   -3.0989   -4.5760   -2.4194 C   0  0  0  0  0  0  0  0  0  0  0  0
   -4.8110   -2.8186    0.9307 O   0  0  0  0  0  0  0  0  0  0  0  0
   -0.5672    0.2430    1.3307 O   0  0  0  0  0  0  0  0  0  0  0  0
    5.1051    0.9877   -1.8060 C   0  0  0  0  0  0  0  0  0  0  0  0
    6.2185    0.8189   -1.3330 O   0  0  0  0  0  0  0  0  0  0  0  0
    4.9197    2.0900   -2.8432 C   0  0  0  0  0  0  0  0  0  0  0  0
    4.2983   -0.6353   -0.1267 O   0  0  0  0  0  0  0  0  0  0  0  0
    4.3696    4.1978   -0.0471 N   0  0  0  0  0  0  0  0  0  0  0  0
    2.7364    5.5030    2.0779 O   0  0  0  0  0  0  0  0  0  0  0  0
    0.2790    5.4391    2.3462 H   0  0  0  0  0  0  0  0  0  0  0  0
   -0.0795    4.2392    3.6794 H   0  0  0  0  0  0  0  0  0  0  0  0
   -0.8441    4.1616    2.0107 H   0  0  0  0  0  0  0  0  0  0  0  0
    0.5981    2.7591    1.6459 H   0  0  0  0  0  0  0  0  0  0  0  0
    1.6695    4.8734    0.4248 H   0  0  0  0  0  0  0  0  0  0  0  0
    2.6800    3.1938    0.2474 H   0  0  0  0  0  0  0  0  0  0  0  0
    4.7909    1.9594    1.5821 H   0  0  0  0  0  0  0  0  0  0  0  0
    4.5050    3.2458    2.7166 H   0  0  0  0  0  0  0  0  0  0  0  0
    3.3132    1.2602    3.3568 H   0  0  0  0  0  0  0  0  0  0  0  0
    1.1854    1.7277    0.1851 H   0  0  0  0  0  0  0  0  0  0  0  0
    3.7871    1.6705   -0.1159 H   0  0  0  0  0  0  0  0  0  0  0  0
    2.6091    1.9355   -1.4499 H   0  0  0  0  0  0  0  0  0  0  0  0
    2.7575    0.2180   -2.9736 H   0  0  0  0  0  0  0  0  0  0  0  0
    3.5921   -1.3113   -2.3884 H   0  0  0  0  0  0  0  0  0  0  0  0
    2.1430   -2.0403   -3.7088 H   0  0  0  0  0  0  0  0  0  0  0  0
   -5.8558   -4.7644   -0.4694 H   0  0  0  0  0  0  0  0  0  0  0  0
   -4.8268   -5.8137   -2.4644 H   0  0  0  0  0  0  0  0  0  0  0  0
   -2.6597   -5.0449   -3.2903 H   0  0  0  0  0  0  0  0  0  0  0  0
   -5.6662   -3.0970    1.2846 H   0  0  0  0  0  0  0  0  0  0  0  0
   -1.4219    0.2261    1.7853 H   0  0  0  0  0  0  0  0  0  0  0  0
    4.4564    1.6852   -3.7570 H   0  0  0  0  0  0  0  0  0  0  0  0
    4.2582    2.9143   -2.5013 H   0  0  0  0  0  0  0  0  0  0  0  0
    5.8901    2.5776   -3.0784 H   0  0  0  0  0  0  0  0  0  0  0  0
    4.6855   -0.1166    0.6313 H   0  0  0  0  0  0  0  0  0  0  0  0
    3.8547    4.4749   -0.9206 H   0  0  0  0  0  0  0  0  0  0  0  0
    5.0135    3.4309   -0.3722 H   0  0  0  0  0  0  0  0  0  0  0  0
    3.5381    5.8513    1.5947 H   0  0  0  0  0  0  0  0  0  0  0  0
  1 38  1  0  0  0  0
  1 39  1  0  0  0  0
  1 40  1  0  0  0  0
  2  3  1  0  0  0  0
  2  7  1  0  0  0  0
  2 41  1  6  0  0  0
  2  1  1  0  0  0  0
  3  4  1  0  0  0  0
  3 42  1  6  0  0  0
  3 37  1  0  0  0  0
  4  5  1  0  0  0  0
  4 43  1  6  0  0  0
  4 36  1  0  0  0  0
  5  6  1  0  0  0  0
  5 44  1  0  0  0  0
  5 45  1  0  0  0  0
  6  7  1  0  0  0  0
  6  8  1  0  0  0  0
  6 46  1  1  0  0  0
  9 10  1  0  0  0  0
  9 14  1  0  0  0  0
  9 47  1  1  0  0  0
  9  8  1  0  0  0  0
 10 11  1  0  0  0  0
 10 48  1  0  0  0  0
 10 49  1  0  0  0  0
 11 12  1  0  0  0  0
 11 32  1  6  0  0  0
 11 35  1  0  0  0  0
 12 13  1  0  0  0  0
 12 50  1  0  0  0  0
 12 51  1  0  0  0  0
 13 14  2  0  0  0  0
 13 18  1  0  0  0  0
 14 15  1  0  0  0  0
 15 16  2  0  0  0  0
 15 31  1  0  0  0  0
 16 17  1  0  0  0  0
 16 24  1  0  0  0  0
 17 18  2  0  0  0  0
 17 20  1  0  0  0  0
 18 19  1  0  0  0  0
 19 52  1  0  0  0  0
 20 21  2  0  0  0  0
 20 22  1  0  0  0  0
 22 23  2  0  0  0  0
 22 29  1  0  0  0  0
 23 24  1  0  0  0  0
 23 26  1  0  0  0  0
 24 25  2  0  0  0  0
 26 27  2  0  0  0  0
 26 30  1  0  0  0  0
 27 28  1  0  0  0  0
 27 53  1  0  0  0  0
 28 29  2  0  0  0  0
 28 54  1  0  0  0  0
 29 55  1  0  0  0  0
 30 56  1  0  0  0  0
 31 57  1  0  0  0  0
 32 33  2  0  0  0  0
 32 34  1  0  0  0  0
 34 58  1  0  0  0  0
 34 59  1  0  0  0  0
 34 60  1  0  0  0  0
 35 61  1  0  0  0  0
 36 62  1  0  0  0  0
 36 63  1  0  0  0  0
 37 64  1  0  0  0  0
M  END
$$$$

 OpenBabel05152416213D

 64 68  0  0  0  0  0  0  0  0999 V2000
    0.0876    0.7449   -0.8682 C   0  0  0  0  0  0  0  0  0  0  0  0
   -0.4921    1.9398   -0.1643 C   0  0  0  0  0  0  0  0  0  0  0  0
   -1.2607    1.0916    1.0140 C   0  0  0  0  0  0  0  0  0  0  0  0
   -0.4475    1.1966    2.2128 C   0  0  0  0  0  0  0  0  0  0  0  0
   -0.1094    2.5897    2.6547 C   0  0  0  0  0  0  0  0  0  0  0  0
    0.8709    3.2789    1.6530 C   0  0  0  0  0  0  0  0  0  0  0  0
    0.4006    3.0703    0.2682 O   0  0  0  0  0  0  0  0  0  0  0  0
    2.3682    2.9192    1.8772 O   0  0  0  0  0  0  0  0  0  0  0  0
    3.1034    1.5217    1.8050 C   0  0  0  0  0  0  0  0  0  0  0  0
    3.0303    0.9506    0.1939 C   0  0  0  0  0  0  0  0  0  0  0  0
    2.6386   -0.8241   -0.0320 C   0  0  0  0  0  0  0  0  0  0  0  0
    1.7382   -1.7133    1.2185 C   0  0  0  0  0  0  0  0  0  0  0  0
    1.8373   -1.0558    2.7919 C   0  0  0  0  0  0  0  0  0  0  0  0
    2.5394    0.4092    3.0860 C   0  0  0  0  0  0  0  0  0  0  0  0
    2.0824    1.1204    4.2368 C   0  0  0  0  0  0  0  0  0  0  0  0
    1.1122    0.5807    5.1356 C   0  0  0  0  0  0  0  0  0  0  0  0
    0.4250   -0.6744    4.8415 C   0  0  0  0  0  0  0  0  0  0  0  0
    0.6908   -1.3944    3.6698 C   0  0  0  0  0  0  0  0  0  0  0  0
   -0.2963   -2.3354    3.3034 O   0  0  0  0  0  0  0  0  0  0  0  0
   -0.5730   -1.1878    5.8191 C   0  0  0  0  0  0  0  0  0  0  0  0
   -1.1786   -2.2487    5.6216 O   0  0  0  0  0  0  0  0  0  0  0  0
   -0.6011   -0.5837    7.1377 C   0  0  0  0  0  0  0  0  0  0  0  0
    0.0612    0.6361    7.4032 C   0  0  0  0  0  0  0  0  0  0  0  0
    0.7935    1.3021    6.3590 C   0  0  0  0  0  0  0  0  0  0  0  0
    1.3228    2.3803    6.6170 O   0  0  0  0  0  0  0  0  0  0  0  0
    0.0785    1.1753    8.6844 C   0  0  0  0  0  0  0  0  0  0  0  0
   -0.5684    0.5003    9.6944 C   0  0  0  0  0  0  0  0  0  0  0  0
   -1.2195   -0.7084    9.4358 C   0  0  0  0  0  0  0  0  0  0  0  0
   -1.2330   -1.2517    8.1649 C   0  0  0  0  0  0  0  0  0  0  0  0
    0.7354    2.3334    8.9381 O   0  0  0  0  0  0  0  0  0  0  0  0
    2.5401    2.4474    4.3978 O   0  0  0  0  0  0  0  0  0  0  0  0
    2.2075   -1.2579   -1.6209 C   0  0  0  0  0  0  0  0  0  0  0  0
    3.0528   -1.8784   -2.2434 O   0  0  0  0  0  0  0  0  0  0  0  0
    0.9121   -1.0299   -2.5730 C   0  0  0  0  0  0  0  0  0  0  0  0
    3.8756   -1.4152    0.1586 O   0  0  0  0  0  0  0  0  0  0  0  0
    0.5782    0.6390    1.7270 N   0  0  0  0  0  0  0  0  0  0  0  0
   -2.5382    1.4301    1.1950 O   0  0  0  0  0  0  0  0  0  0  0  0
   -0.1315   -0.2936   -0.5271 H   0  0  0  0  0  0  0  0  0  0  0  0
    0.2353   -0.2220   -0.3606 H   0  0  0  0  0  0  0  0  0  0  0  0
    1.0985    0.8403   -1.0316 H   0  0  0  0  0  0  0  0  0  0  0  0
   -0.5107    2.2026   -1.2383 H   0  0  0  0  0  0  0  0  0  0  0  0
   -1.3458   -0.0654    0.9767 H   0  0  0  0  0  0  0  0  0  0  0  0
   -0.7217    0.5371    3.0156 H   0  0  0  0  0  0  0  0  0  0  0  0
    0.2317    2.7087    3.6830 H   0  0  0  0  0  0  0  0  0  0  0  0
   -1.1226    2.9583    2.6960 H   0  0  0  0  0  0  0  0  0  0  0  0
    0.6445    4.3593    1.9064 H   0  0  0  0  0  0  0  0  0  0  0  0
    4.2052    1.6983    1.7543 H   0  0  0  0  0  0  0  0  0  0  0  0
    3.3044    1.4974   -0.7957 H   0  0  0  0  0  0  0  0  0  0  0  0
    2.4386    1.8669   -0.1657 H   0  0  0  0  0  0  0  0  0  0  0  0
    0.6167   -1.7763    0.9199 H   0  0  0  0  0  0  0  0  0  0  0  0
    1.5618   -2.8485    1.1414 H   0  0  0  0  0  0  0  0  0  0  0  0
   -0.4607   -2.7863    2.4638 H   0  0  0  0  0  0  0  0  0  0  0  0
   -0.5528    0.9236   10.6740 H   0  0  0  0  0  0  0  0  0  0  0  0
   -1.7165   -1.2322   10.2182 H   0  0  0  0  0  0  0  0  0  0  0  0
   -1.7167   -2.2010    7.9680 H   0  0  0  0  0  0  0  0  0  0  0  0
    0.7821    2.7642    9.7955 H   0  0  0  0  0  0  0  0  0  0  0  0
    2.2760    3.2403    4.9002 H   0  0  0  0  0  0  0  0  0  0  0  0
   -0.0644   -1.4342   -2.1756 H   0  0  0  0  0  0  0  0  0  0  0  0
    0.7488    0.0335   -2.8995 H   0  0  0  0  0  0  0  0  0  0  0  0
    0.8914   -1.4179   -3.5977 H   0  0  0  0  0  0  0  0  0  0  0  0
    4.5326   -0.7381   -0.1107 H   0  0  0  0  0  0  0  0  0  0  0  0
    1.3123    0.3314    1.2575 H   0  0  0  0  0  0  0  0  0  0  0  0
    1.0730    1.2416    1.1638 H   0  0  0  0  0  0  0  0  0  0  0  0
   -2.4740    2.3888    1.1055 H   0  0  0  0  0  0  0  0  0  0  0  0
  1  2  1  0  0  0  0
  1 38  1  0  0  0  0
  1 39  1  0  0  0  0
  1 40  1  0  0  0  0
  2  3  1  0  0  0  0
  2  7  1  0  0  0  0
  2 41  1  0  0  0  0
  3  4  1  0  0  0  0
  3 37  1  0  0  0  0
  3 42  1  0  0  0  0
  4  5  1  0  0  0  0
  4 36  1  0  0  0  0
  4 43  1  0  0  0  0
  5  6  1  0  0  0  0
  5 44  1  0  0  0  0
  5 45  1  0  0  0  0
  6  7  1  0  0  0  0
  6  8  1  0  0  0  0
  6 46  1  0  0  0  0
  8  9  1  0  0  0  0
  9 10  1  0  0  0  0
  9 14  1  0  0  0  0
  9 47  1  0  0  0  0
 10 11  1  0  0  0  0
 10 48  1  0  0  0  0
 10 49  1  0  0  0  0
 11 12  1  0  0  0  0
 11 32  1  0  0  0  0
 11 35  1  0  0  0  0
 12 13  1  0  0  0  0
 12 50  1  0  0  0  0
 12 51  1  0  0  0  0
 13 14  2  0  0  0  0
 13 18  1  0  0  0  0
 14 15  1  0  0  0  0
 15 16  2  0  0  0  0
 15 31  1  0  0  0  0
 16 17  1  0  0  0  0
 16 24  1  0  0  0  0
 17 18  2  0  0  0  0
 17 20  1  0  0  0  0
 18 19  1  0  0  0  0
 19 52  1  0  0  0  0
 20 21  2  0  0  0  0
 20 22  1  0  0  0  0
 22 23  2  0  0  0  0
 22 29  1  0  0  0  0
 23 24  1  0  0  0  0
 23 26  1  0  0  0  0
 24 25  2  0  0  0  0
 26 27  2  0  0  0  0
 26 30  1  0  0  0  0
 27 28  1  0  0  0  0
 27 53  1  0  0  0  0
 28 29  2  0  0  0  0
 28 54  1  0  0  0  0
 29 55  1  0  0  0  0
 30 56  1  0  0  0  0
 31 57  1  0  0  0  0
 32 33  2  0  0  0  0
 32 34  1  0  0  0  0
 34 58  1  0  0  0  0
 34 59  1  0  0  0  0
 34 60  1  0  0  0  0
 35 61  1  0  0  0  0
 36 62  1  0  0  0  0
 36 63  1  0  0  0  0
 37 64  1  0  0  0  0
M  END
$$$$

 OpenBabel05152416213D

 63 67  0  0  1  0  0  0  0  0999 V2000
    4.1685    3.8410   -1.1252 C   0  0  0  0  0  0  0  0  0  0  0  0
    4.1346    2.3817   -0.7649 C   0  0  1  0  0  0  0  0  0  0  0  0
    4.9587    1.5890   -1.8861 C   0  0  2  0  0  0  0  0  0  0  0  0
    5.1318    0.1291   -1.5316 C   0  0  2  0  0  0  0  0  0  0  0  0
    5.3562   -0.1586    0.0199 C   0  0  0  0  0  0  0  0  0  0  0  0
    4.3400    0.6992    0.8573 C   0  0  1  0  0  0  0  0  0  0  0  0
    4.5752    2.0813    0.5503 O   0  0  0  0  0  0  0  0  0  0  0  0
    2.9135    0.3078    0.9710 O   0  0  0  0  0  0  0  0  0  0  0  0
    2.1695    0.0334   -0.2400 C   0  0  1  0  0  0  0  0  0  0  0  0
    2.6623   -1.1004   -1.0346 C   0  0  0  0  0  0  0  0  0  0  0  0
    2.3559   -2.4507   -0.7442 C   0  0  1  0  0  0  0  0  0  0  0  0
    0.9639   -2.4959   -1.2270 C   0  0  0  0  0  0  0  0  0  0  0  0
    0.1267   -1.3019   -0.6991 C   0  0  0  0  0  0  0  0  0  0  0  0
    0.7066   -0.1069   -0.1760 C   0  0  0  0  0  0  0  0  0  0  0  0
   -0.0535    1.0207    0.1836 C   0  0  0  0  0  0  0  0  0  0  0  0
   -1.4550    0.9017    0.0590 C   0  0  0  0  0  0  0  0  0  0  0  0
   -2.0081   -0.3013   -0.4572 C   0  0  0  0  0  0  0  0  0  0  0  0
   -1.2165   -1.3817   -0.8727 C   0  0  0  0  0  0  0  0  0  0  0  0
   -1.7461   -2.4825   -1.4435 O   0  0  0  0  0  0  0  0  0  0  0  0
   -3.4593   -0.4801   -0.5714 C   0  0  0  0  0  0  0  0  0  0  0  0
   -3.9362   -1.5148   -0.9838 O   0  0  0  0  0  0  0  0  0  0  0  0
   -4.3297    0.5903   -0.1047 C   0  0  0  0  0  0  0  0  0  0  0  0
   -5.7050    0.3789   -0.1391 C   0  0  0  0  0  0  0  0  0  0  0  0
   -6.5585    1.3774    0.3049 C   0  0  0  0  0  0  0  0  0  0  0  0
   -6.0460    2.5838    0.7812 C   0  0  0  0  0  0  0  0  0  0  0  0
   -4.6737    2.7978    0.8204 C   0  0  0  0  0  0  0  0  0  0  0  0
   -3.8102    1.7938    0.3776 C   0  0  0  0  0  0  0  0  0  0  0  0
   -2.3608    2.0189    0.4491 C   0  0  0  0  0  0  0  0  0  0  0  0
   -1.9517    3.0793    0.8612 O   0  0  0  0  0  0  0  0  0  0  0  0
    0.5975    2.1472    0.5781 O   0  0  0  0  0  0  0  0  0  0  0  0
    3.3712   -3.3287   -1.5328 C   0  0  0  0  0  0  0  0  0  0  0  0
    4.1555   -4.0113   -0.8930 O   0  0  0  0  0  0  0  0  0  0  0  0
    3.5592   -3.2590   -3.0500 C   0  0  0  0  0  0  0  0  0  0  0  0
    2.4129   -2.6906    0.6586 O   0  0  0  0  0  0  0  0  0  0  0  0
    5.8397   -0.7979   -2.4127 N   0  0  0  0  0  0  0  0  0  0  0  0
    6.2371    2.0931   -2.0456 O   0  0  0  0  0  0  0  0  0  0  0  0
    4.0456    4.4255   -0.2001 H   0  0  0  0  0  0  0  0  0  0  0  0
    3.3297    4.0697   -1.8386 H   0  0  0  0  0  0  0  0  0  0  0  0
    5.0972    4.0919   -1.6547 H   0  0  0  0  0  0  0  0  0  0  0  0
    3.0555    2.4145   -0.6246 H   0  0  0  0  0  0  0  0  0  0  0  0
    4.3968    1.7451   -2.8697 H   0  0  0  0  0  0  0  0  0  0  0  0
    4.2077    0.0603   -1.9218 H   0  0  0  0  0  0  0  0  0  0  0  0
    5.2771   -1.2370    0.3446 H   0  0  0  0  0  0  0  0  0  0  0  0
    6.4036    0.0744    0.2769 H   0  0  0  0  0  0  0  0  0  0  0  0
    4.7079    0.5455    1.9009 H   0  0  0  0  0  0  0  0  0  0  0  0
    2.1805    0.8287   -0.9451 H   0  0  0  0  0  0  0  0  0  0  0  0
    3.5674   -1.2321   -0.6730 H   0  0  0  0  0  0  0  0  0  0  0  0
    2.4799   -0.8523   -2.1331 H   0  0  0  0  0  0  0  0  0  0  0  0
    0.9575   -2.4105   -2.3486 H   0  0  0  0  0  0  0  0  0  0  0  0
    0.6440   -3.4859   -0.9000 H   0  0  0  0  0  0  0  0  0  0  0  0
   -1.2446   -3.2340   -1.7967 H   0  0  0  0  0  0  0  0  0  0  0  0
   -6.1038   -0.5579   -0.5033 H   0  0  0  0  0  0  0  0  0  0  0  0
   -7.6187    1.2042    0.2758 H   0  0  0  0  0  0  0  0  0  0  0  0
   -6.7047    3.3602    1.1272 H   0  0  0  0  0  0  0  0  0  0  0  0
   -4.2866    3.7335    1.1992 H   0  0  0  0  0  0  0  0  0  0  0  0
    0.2466    3.0295    0.7765 H   0  0  0  0  0  0  0  0  0  0  0  0
    2.6357   -3.5571   -3.5688 H   0  0  0  0  0  0  0  0  0  0  0  0
    3.8107   -2.2584   -3.4622 H   0  0  0  0  0  0  0  0  0  0  0  0
    4.4003   -3.9234   -3.3540 H   0  0  0  0  0  0  0  0  0  0  0  0
    3.3028   -2.4119    1.0200 H   0  0  0  0  0  0  0  0  0  0  0  0
    5.4150   -0.7316   -3.3748 H   0  0  0  0  0  0  0  0  0  0  0  0
    5.5511   -1.7599   -2.0888 H   0  0  0  0  0  0  0  0  0  0  0  0
    6.6906    1.9218   -1.1855 H   0  0  0  0  0  0  0  0  0  0  0  0
  1 37  1  0  0  0  0
  1 38  1  0  0  0  0
  1 39  1  0  0  0  0
  2  3  1  0  0  0  0
  2  7  1  0  0  0  0
  2 40  1  6  0  0  0
  2  1  1  0  0  0  0
  3  4  1  0  0  0  0
  3 41  1  6  0  0  0
  3 36  1  0  0  0  0
  4  5  1  0  0  0  0
  4 42  1  6  0  0  0
  4 35  1  0  0  0  0
  5  6  1  0  0  0  0
  5 43  1  0  0  0  0
  5 44  1  0  0  0  0
  6  7  1  0  0  0  0
  6  8  1  0  0  0  0
  6 45  1  1  0  0  0
  9 10  1  0  0  0  0
  9 14  1  0  0  0  0
  9 46  1  6  0  0  0
  9  8  1  0  0  0  0
 10 11  1  0  0  0  0
 10 47  1  0  0  0  0
 10 48  1  0  0  0  0
 11 12  1  0  0  0  0
 11 31  1  6  0  0  0
 11 34  1  0  0  0  0
 12 13  1  0  0  0  0
 12 49  1  0  0  0  0
 12 50  1  0  0  0  0
 13 14  2  0  0  0  0
 13 18  1  0  0  0  0
 14 15  1  0  0  0  0
 15 16  2  0  0  0  0
 15 30  1  0  0  0  0
 16 17  1  0  0  0  0
 16 28  1  0  0  0  0
 17 18  2  0  0  0  0
 17 20  1  0  0  0  0
 18 19  1  0  0  0  0
 19 51  1  0  0  0  0
 20 21  2  0  0  0  0
 20 22  1  0  0  0  0
 22 23  2  0  0  0  0
 22 27  1  0  0  0  0
 23 24  1  0  0  0  0
 23 52  1  0  0  0  0
 24 25  2  0  0  0  0
 24 53  1  0  0  0  0
 25 26  1  0  0  0  0
 25 54  1  0  0  0  0
 26 27  2  0  0  0  0
 26 55  1  0  0  0  0
 27 28  1  0  0  0  0
 28 29  2  0  0  0  0
 30 56  1  0  0  0  0
 31 32  2  0  0  0  0
 31 33  1  0  0  0  0
 33 57  1  0  0  0  0
 33 58  1  0  0  0  0
 33 59  1  0  0  0  0
 34 60  1  0  0  0  0
 35 61  1  0  0  0  0
 35 62  1  0  0  0  0
 36 63  1  0  0  0  0
M  END
$$$$

 OpenBabel05152416213D

 52 55  0  0  0  0  0  0  0  0999 V2000
   -0.8443    1.1760    0.4123 C   0  0  0  0  0  0  0  0  0  0  0  0
    0.5271    1.0860   -0.1624 C   0  0  0  0  0  0  0  0  0  0  0  0
    1.1908   -0.2234    0.1092 N   0  0  0  0  0  0  0  0  0  0  0  0
    0.4692   -1.3627   -0.3667 C   0  0  0  0  0  0  0  0  0  0  0  0
   -0.8694   -1.3227    0.2314 C   0  0  0  0  0  0  0  0  0  0  0  0
   -1.6371   -0.0331   -0.1099 C   0  0  0  0  0  0  0  0  0  0  0  0
   -2.9783   -0.0050    0.5036 N   0  0  0  0  0  0  0  0  0  0  0  0
   -3.8922    0.9773    0.3443 C   0  0  0  0  0  0  0  0  0  0  0  0
   -3.8801    2.1676   -0.4236 C   0  0  0  0  0  0  0  0  0  0  0  0
   -5.0120    3.0069   -0.3558 C   0  0  0  0  0  0  0  0  0  0  0  0
   -6.1170    2.6538    0.4485 C   0  0  0  0  0  0  0  0  0  0  0  0
   -6.1027    1.4684    1.1899 C   0  0  0  0  0  0  0  0  0  0  0  0
   -4.9851    0.6646    1.1128 C   0  0  0  0  0  0  0  0  0  0  0  0
   -4.7928   -0.4871    1.7404 N   0  0  0  0  0  0  0  0  0  0  0  0
   -3.5738   -0.9064    1.3675 C   0  0  0  0  0  0  0  0  0  0  0  0
   -3.0505   -2.1389    1.8771 S   0  0  0  0  0  0  0  0  0  0  0  0
    2.5165   -0.3752   -0.4479 C   0  0  0  0  0  0  0  0  0  0  0  0
    2.8362   -0.1414   -1.9201 C   0  0  0  0  0  0  0  0  0  0  0  0
    2.5655    1.3046   -2.4295 C   0  0  0  0  0  0  0  0  0  0  0  0
    3.2830    2.5373   -1.7132 C   0  0  0  0  0  0  0  0  0  0  0  0
    3.3757    3.5090   -2.4448 O   0  0  0  0  0  0  0  0  0  0  0  0
    3.4252    2.8284   -0.1792 C   0  0  0  0  0  0  0  0  0  0  0  0
    3.9573    1.9307    0.8033 C   0  0  0  0  0  0  0  0  0  0  0  0
    3.6040    2.0267    2.1434 C   0  0  0  0  0  0  0  0  0  0  0  0
    3.0240    3.1812    2.6161 C   0  0  0  0  0  0  0  0  0  0  0  0
    2.7835    4.2359    1.7325 C   0  0  0  0  0  0  0  0  0  0  0  0
    2.9233    4.0431    0.3405 C   0  0  0  0  0  0  0  0  0  0  0  0
    2.7280    3.2799    3.9357 F   0  0  0  0  0  0  0  0  0  0  0  0
   -1.2675    2.1416    0.0586 H   0  0  0  0  0  0  0  0  0  0  0  0
   -0.8037    1.2143    1.5188 H   0  0  0  0  0  0  0  0  0  0  0  0
    0.2867    1.1708   -1.2047 H   0  0  0  0  0  0  0  0  0  0  0  0
    1.0974    1.9551    0.2216 H   0  0  0  0  0  0  0  0  0  0  0  0
    0.9834   -2.2889   -0.0043 H   0  0  0  0  0  0  0  0  0  0  0  0
    0.4075   -1.3493   -1.4707 H   0  0  0  0  0  0  0  0  0  0  0  0
   -0.6864   -1.3581    1.3305 H   0  0  0  0  0  0  0  0  0  0  0  0
   -1.3828   -2.2132   -0.1716 H   0  0  0  0  0  0  0  0  0  0  0  0
   -1.7301    0.0261   -1.2232 H   0  0  0  0  0  0  0  0  0  0  0  0
   -3.0569    2.4680   -1.0615 H   0  0  0  0  0  0  0  0  0  0  0  0
   -5.0479    3.9305   -0.9213 H   0  0  0  0  0  0  0  0  0  0  0  0
   -6.9847    3.2941    0.4962 H   0  0  0  0  0  0  0  0  0  0  0  0
   -6.9335    1.1720    1.8119 H   0  0  0  0  0  0  0  0  0  0  0  0
   -5.4330   -0.9880    2.3967 H   0  0  0  0  0  0  0  0  0  0  0  0
    2.8517    0.4306   -0.1694 H   0  0  0  0  0  0  0  0  0  0  0  0
    3.1173   -1.1571    0.0724 H   0  0  0  0  0  0  0  0  0  0  0  0
    3.9367   -0.2416   -2.0262 H   0  0  0  0  0  0  0  0  0  0  0  0
    2.3730   -0.9501   -2.5232 H   0  0  0  0  0  0  0  0  0  0  0  0
    2.8033    1.2959   -3.5109 H   0  0  0  0  0  0  0  0  0  0  0  0
    1.5023    1.5087   -2.6347 H   0  0  0  0  0  0  0  0  0  0  0  0
    4.4981    1.0240    0.5474 H   0  0  0  0  0  0  0  0  0  0  0  0
    3.7748    1.1814    2.8077 H   0  0  0  0  0  0  0  0  0  0  0  0
    2.4141    5.1688    2.1268 H   0  0  0  0  0  0  0  0  0  0  0  0
    2.5845    4.8252   -0.3228 H   0  0  0  0  0  0  0  0  0  0  0  0
  1  2  1  0  0  0  0
  1  6  1  0  0  0  0
  1 29  1  0  0  0  0
  1 30  1  0  0  0  0
  2  3  1  0  0  0  0
  2 31  1  0  0  0  0
  2 32  1  0  0  0  0
  3  4  1  0  0  0  0
  3 17  1  0  0  0  0
  4  5  1  0  0  0  0
  4 33  1  0  0  0  0
  4 34  1  0  0  0  0
  5  6  1  0  0  0  0
  5 35  1  0  0  0  0
  5 36  1  0  0  0  0
  6  7  1  0  0  0  0
  6 37  1  0  0  0  0
  7  8  1  0  0  0  0
  7 15  1  0  0  0  0
  8  9  2  0  0  0  0
  8 13  1  0  0  0  0
  9 10  1  0  0  0  0
  9 38  1  0  0  0  0
 10 11  2  0  0  0  0
 10 39  1  0  0  0  0
 11 12  1  0  0  0  0
 11 40  1  0  0  0  0
 12 13  2  0  0  0  0
 12 41  1  0  0  0  0
 13 14  1  0  0  0  0
 14 15  1  0  0  0  0
 14 42  1  0  0  0  0
 15 16  2  0  0  0  0
 17 18  1  0  0  0  0
 17 43  1  0  0  0  0
 17 44  1  0  0  0  0
 18 19  1  0  0  0  0
 18 45  1  0  0  0  0
 18 46  1  0  0  0  0
 19 20  1  0  0  0  0
 19 47  1  0  0  0  0
 19 48  1  0  0  0  0
 20 21  2  0  0  0  0
 20 22  1  0  0  0  0
 22 23  2  0  0  0  0
 22 27  1  0  0  0  0
 23 24  1  0  0  0  0
 23 49  1  0  0  0  0
 24 25  2  0  0  0  0
 24 50  1  0  0  0  0
 25 26  1  0  0  0  0
 25 28  1  0  0  0  0
 26 27  2  0  0  0  0
 26 51  1  0  0  0  0
 27 52  1  0  0  0  0
M  END
$$$$

 OpenBabel05152416213D

 54 57  0  0  1  0  0  0  0  0999 V2000
    0.4034   -0.3900    0.9684 C   0  0  0  0  0  0  0  0  0  0  0  0
    0.1509    0.6455   -2.0521 S   0  0  0  0  0  0  0  0  0  0  0  0
    0.7755   -0.2510   -3.1808 O   0  0  0  0  0  0  0  0  0  0  0  0
   -1.2732    0.6813   -2.4920 O   0  0  0  0  0  0  0  0  0  0  0  0
    0.9229    2.1787   -2.6134 O   0  0  0  0  0  0  0  0  0  0  0  0
   -0.8582    1.4606    0.2128 C   0  0  0  0  0  0  0  0  0  0  0  0
    1.0278    1.3855    0.0171 C   0  0  2  0  0  0  0  0  0  0  0  0
    0.7222   -1.2909   -0.8193 C   0  0  1  0  0  0  0  0  0  0  0  0
    2.4481    0.1845    0.6511 C   0  0  0  0  0  0  0  0  0  0  0  0
    2.4466    0.0654    2.2034 N   0  0  0  0  0  0  0  0  0  0  0  0
   -1.1022   -1.4468   -0.2795 C   0  0  0  0  0  0  0  0  0  0  0  0
   -1.6942    0.0408   -0.0568 N   0  0  0  0  0  0  0  0  0  0  0  0
   -3.0709    0.0619   -0.3706 C   0  0  0  0  0  0  0  0  0  0  0  0
   -3.9757   -0.6142    0.4351 C   0  0  0  0  0  0  0  0  0  0  0  0
   -5.3073   -0.6378    0.0717 C   0  0  0  0  0  0  0  0  0  0  0  0
   -5.7273   -0.0311   -1.1188 C   0  0  0  0  0  0  0  0  0  0  0  0
   -7.0676   -0.0332   -1.4839 C   0  0  0  0  0  0  0  0  0  0  0  0
   -7.8869   -0.5668   -0.7545 O   0  0  0  0  0  0  0  0  0  0  0  0
   -7.4687    0.5819   -2.6761 C   0  0  0  0  0  0  0  0  0  0  0  0
   -6.4768    1.1977   -3.4822 C   0  0  0  0  0  0  0  0  0  0  0  0
   -5.1478    1.1974   -3.1154 N   0  0  0  0  0  0  0  0  0  0  0  0
   -4.7769    0.5956   -1.9429 C   0  0  0  0  0  0  0  0  0  0  0  0
   -3.4939    0.6336   -1.5246 N   0  0  0  0  0  0  0  0  0  0  0  0
   -4.1616    1.8107   -3.9918 C   0  0  0  0  0  0  0  0  0  0  0  0
   -4.2473    3.1600   -4.3515 C   0  0  0  0  0  0  0  0  0  0  0  0
   -3.2513    3.7384   -5.1453 C   0  0  0  0  0  0  0  0  0  0  0  0
   -2.3506    2.9281   -5.8188 C   0  0  0  0  0  0  0  0  0  0  0  0
   -2.3822    1.5541   -5.6172 C   0  0  0  0  0  0  0  0  0  0  0  0
   -3.1310    1.0418   -4.5498 C   0  0  0  0  0  0  0  0  0  0  0  0
   -1.4315    3.4804   -6.6471 F   0  0  0  0  0  0  0  0  0  0  0  0
   -5.2416    3.9265   -3.8643 F   0  0  0  0  0  0  0  0  0  0  0  0
   -8.9139    0.5736   -3.0707 C   0  0  0  0  0  0  0  0  0  0  0  0
   -9.2667    1.0995   -4.1140 O   0  0  0  0  0  0  0  0  0  0  0  0
   -9.8458   -0.0139   -2.2756 O   0  0  0  0  0  0  0  0  0  0  0  0
   -3.5688   -1.2010    1.5857 F   0  0  0  0  0  0  0  0  0  0  0  0
    0.9548   -1.3854    1.2459 H   0  0  0  0  0  0  0  0  0  0  0  0
    0.1518    0.1776    1.6950 H   0  0  0  0  0  0  0  0  0  0  0  0
    1.8090    0.1011   -1.0786 H   0  0  0  0  0  0  0  0  0  0  0  0
    0.2551    2.7837   -2.9951 H   0  0  0  0  0  0  0  0  0  0  0  0
   -1.2985    2.2935   -0.3437 H   0  0  0  0  0  0  0  0  0  0  0  0
   -0.9412    1.7063    1.3092 H   0  0  0  0  0  0  0  0  0  0  0  0
    1.3998    2.1531   -0.5901 H   0  0  0  0  0  0  0  0  0  0  0  0
    1.1564   -2.1852   -1.1757 H   0  0  0  0  0  0  0  0  0  0  0  0
    3.4664    0.0355    0.3289 H   0  0  0  0  0  0  0  0  0  0  0  0
    2.5970    1.0437    2.4098 H   0  0  0  0  0  0  0  0  0  0  0  0
    1.5803   -0.0172    2.8600 H   0  0  0  0  0  0  0  0  0  0  0  0
   -1.1708   -1.8087    0.9364 H   0  0  0  0  0  0  0  0  0  0  0  0
   -1.4780   -2.4017   -0.5448 H   0  0  0  0  0  0  0  0  0  0  0  0
   -6.0077   -1.1237    0.7269 H   0  0  0  0  0  0  0  0  0  0  0  0
   -6.7841    1.6565   -4.4154 H   0  0  0  0  0  0  0  0  0  0  0  0
   -3.2055    4.8025   -5.2897 H   0  0  0  0  0  0  0  0  0  0  0  0
   -1.7983    0.8979   -6.2489 H   0  0  0  0  0  0  0  0  0  0  0  0
   -2.9583    0.0351   -4.2080 H   0  0  0  0  0  0  0  0  0  0  0  0
  -10.7912   -0.0399   -2.4880 H   0  0  0  0  0  0  0  0  0  0  0  0
  1  2  1  0  0  0  0
  1 36  1  0  0  0  0
  1 37  1  0  0  0  0
  1 38  1  0  0  0  0
  2  3  2  0  0  0  0
  2  4  2  0  0  0  0
  2  5  1  0  0  0  0
  5 39  1  0  0  0  0
  6  7  1  0  0  0  0
  6 12  1  0  0  0  0
  6 40  1  0  0  0  0
  6 41  1  0  0  0  0
  7  8  1  0  0  0  0
  7  9  1  0  0  0  0
  7 42  1  6  0  0  0
  8  9  1  0  0  0  0
  8 11  1  0  0  0  0
  8 43  1  6  0  0  0
  9 10  1  0  0  0  0
  9 44  1  0  0  0  0
 10 45  1  0  0  0  0
 10 46  1  0  0  0  0
 11 12  1  0  0  0  0
 11 47  1  0  0  0  0
 11 48  1  0  0  0  0
 12 13  1  0  0  0  0
 13 14  2  0  0  0  0
 13 23  1  0  0  0  0
 14 15  1  0  0  0  0
 14 35  1  0  0  0  0
 15 16  2  0  0  0  0
 15 49  1  0  0  0  0
 16 17  1  0  0  0  0
 16 22  1  0  0  0  0
 17 18  2  0  0  0  0
 17 19  1  0  0  0  0
 19 20  2  0  0  0  0
 19 32  1  0  0  0  0
 20 21  1  0  0  0  0
 20 50  1  0  0  0  0
 21 22  1  0  0  0  0
 21 24  1  0  0  0  0
 22 23  2  0  0  0  0
 24 25  2  0  0  0  0
 24 29  1  0  0  0  0
 25 26  1  0  0  0  0
 25 31  1  0  0  0  0
 26 27  2  0  0  0  0
 26 51  1  0  0  0  0
 27 28  1  0  0  0  0
 27 30  1  0  0  0  0
 28 29  2  0  0  0  0
 28 52  1  0  0  0  0
 29 53  1  0  0  0  0
 32 33  2  0  0  0  0
 32 34  1  0  0  0  0
 34 54  1  0  0  0  0
M  END
$$$$

 OpenBabel05152416213D

 44 47  0  0  0  0  0  0  0  0999 V2000
    0.9103    0.0106   -0.0550 C   0  0  0  0  0  0  0  0  0  0  0  0
    0.4010   -0.6024   -1.3497 C   0  0  0  0  0  0  0  0  0  0  0  0
    0.9314   -2.0235   -1.4522 C   0  0  0  0  0  0  0  0  0  0  0  0
   -1.1007   -0.5942   -1.3407 C   0  0  0  0  0  0  0  0  0  0  0  0
   -1.8040    0.5955   -1.3383 N   0  0  0  0  0  0  0  0  0  0  0  0
   -3.2032    0.5085   -1.3323 C   0  0  0  0  0  0  0  0  0  0  0  0
   -4.0953    1.5578   -1.3289 N   0  0  0  0  0  0  0  0  0  0  0  0
   -5.3221    0.9478   -1.3262 C   0  0  0  0  0  0  0  0  0  0  0  0
   -5.1937   -0.4014   -1.3174 C   0  0  0  0  0  0  0  0  0  0  0  0
   -3.8131   -0.6603   -1.3222 N   0  0  0  0  0  0  0  0  0  0  0  0
   -3.1634   -1.8214   -1.3303 N   0  0  0  0  0  0  0  0  0  0  0  0
   -1.7934   -1.8015   -1.3422 C   0  0  0  0  0  0  0  0  0  0  0  0
   -6.3119   -1.3541   -1.3275 C   0  0  0  0  0  0  0  0  0  0  0  0
   -6.4316   -2.2672   -0.3214 C   0  0  0  0  0  0  0  0  0  0  0  0
   -7.4775   -3.1703   -0.2766 C   0  0  0  0  0  0  0  0  0  0  0  0
   -8.2312   -3.3680   -1.4088 C   0  0  0  0  0  0  0  0  0  0  0  0
   -7.9429   -2.6245   -2.5283 C   0  0  0  0  0  0  0  0  0  0  0  0
   -7.2623   -1.4137   -2.3382 C   0  0  0  0  0  0  0  0  0  0  0  0
   -9.2313   -4.2560   -1.3776 F   0  0  0  0  0  0  0  0  0  0  0  0
   -7.7874   -3.9550    0.9118 C   0  0  0  0  0  0  0  0  0  0  0  0
   -8.0886   -3.2897    2.0913 C   0  0  0  0  0  0  0  0  0  0  0  0
   -8.5117   -4.0786    3.1552 C   0  0  0  0  0  0  0  0  0  0  0  0
   -9.0383   -5.3476    2.8770 C   0  0  0  0  0  0  0  0  0  0  0  0
   -8.4830   -6.0472    1.8270 C   0  0  0  0  0  0  0  0  0  0  0  0
   -7.8410   -5.3367    0.8677 C   0  0  0  0  0  0  0  0  0  0  0  0
   -7.2998   -5.9821   -0.1601 F   0  0  0  0  0  0  0  0  0  0  0  0
   -8.0024   -1.7599    2.1613 C   0  0  0  0  0  0  0  0  0  0  0  0
   -7.9413   -0.6154    2.2238 N   0  0  0  0  0  0  0  0  0  0  0  0
    0.8796    0.1525   -2.4422 O   0  0  0  0  0  0  0  0  0  0  0  0
    0.5538   -0.5624    0.7922 H   0  0  0  0  0  0  0  0  0  0  0  0
    0.5542    1.0270    0.0330 H   0  0  0  0  0  0  0  0  0  0  0  0
    1.9919    0.0134   -0.0465 H   0  0  0  0  0  0  0  0  0  0  0  0
    0.5657   -2.6108   -0.6100 H   0  0  0  0  0  0  0  0  0  0  0  0
    0.5588   -2.4728   -2.3731 H   0  0  0  0  0  0  0  0  0  0  0  0
    1.9922   -2.0347   -1.4532 H   0  0  0  0  0  0  0  0  0  0  0  0
   -6.2490    1.4614   -1.3159 H   0  0  0  0  0  0  0  0  0  0  0  0
   -1.2419   -2.7103   -1.3533 H   0  0  0  0  0  0  0  0  0  0  0  0
   -5.7267   -2.2401    0.4695 H   0  0  0  0  0  0  0  0  0  0  0  0
   -8.2557   -2.9560   -3.5080 H   0  0  0  0  0  0  0  0  0  0  0  0
   -7.4313   -0.5601   -2.9744 H   0  0  0  0  0  0  0  0  0  0  0  0
   -8.4593   -3.6924    4.1605 H   0  0  0  0  0  0  0  0  0  0  0  0
   -9.8257   -5.7828    3.4760 H   0  0  0  0  0  0  0  0  0  0  0  0
   -8.5419   -7.1095    1.7454 H   0  0  0  0  0  0  0  0  0  0  0  0
    0.5460   -0.2531   -3.2922 H   0  0  0  0  0  0  0  0  0  0  0  0
  1  2  1  0  0  0  0
  1 30  1  0  0  0  0
  1 31  1  0  0  0  0
  1 32  1  0  0  0  0
  2  3  1  0  0  0  0
  2  4  1  0  0  0  0
  2 29  1  0  0  0  0
  3 33  1  0  0  0  0
  3 34  1  0  0  0  0
  3 35  1  0  0  0  0
  4  5  2  0  0  0  0
  4 12  1  0  0  0  0
  5  6  1  0  0  0  0
  6  7  2  0  0  0  0
  6 10  1  0  0  0  0
  7  8  1  0  0  0  0
  8  9  2  0  0  0  0
  8 36  1  0  0  0  0
  9 10  1  0  0  0  0
  9 13  1  0  0  0  0
 10 11  1  0  0  0  0
 11 12  2  0  0  0  0
 12 37  1  0  0  0  0
 13 14  2  0  0  0  0
 13 18  1  0  0  0  0
 14 15  1  0  0  0  0
 14 38  1  0  0  0  0
 15 16  2  0  0  0  0
 15 20  1  0  0  0  0
 16 17  1  0  0  0  0
 16 19  1  0  0  0  0
 17 18  2  0  0  0  0
 17 39  1  0  0  0  0
 18 40  1  0  0  0  0
 20 21  2  0  0  0  0
 20 25  1  0  0  0  0
 21 22  1  0  0  0  0
 21 27  1  0  0  0  0
 22 23  2  0  0  0  0
 22 41  1  0  0  0  0
 23 24  1  0  0  0  0
 23 42  1  0  0  0  0
 24 25  2  0  0  0  0
 24 43  1  0  0  0  0
 25 26  1  0  0  0  0
 27 28  3  0  0  0  0
 29 44  1  0  0  0  0
M  END
$$$$

 OpenBabel05152416213D

 34 36  0  0  0  0  0  0  0  0999 V2000
    0.8486    0.0767    0.0559 C   0  0  0  0  0  0  0  0  0  0  0  0
    0.5055    0.2838   -1.4146 C   0  0  0  0  0  0  0  0  0  0  0  0
    1.0690   -0.6588   -2.2650 O   0  0  0  0  0  0  0  0  0  0  0  0
    2.3929   -0.8788   -2.4539 C   0  0  0  0  0  0  0  0  0  0  0  0
    2.8715   -0.9133   -3.7644 C   0  0  0  0  0  0  0  0  0  0  0  0
    4.2466   -1.0955   -4.0269 C   0  0  0  0  0  0  0  0  0  0  0  0
    4.7817   -1.1646   -5.3421 C   0  0  0  0  0  0  0  0  0  0  0  0
    6.1850   -1.3456   -5.4893 C   0  0  0  0  0  0  0  0  0  0  0  0
    7.0033   -1.4371   -4.3344 C   0  0  0  0  0  0  0  0  0  0  0  0
    8.3836   -1.6122   -4.4403 C   0  0  0  0  0  0  0  0  0  0  0  0
    8.9796   -1.7071   -5.6998 C   0  0  0  0  0  0  0  0  0  0  0  0
    8.1866   -1.6247   -6.8454 C   0  0  0  0  0  0  0  0  0  0  0  0
    6.8119   -1.4453   -6.7473 C   0  0  0  0  0  0  0  0  0  0  0  0
   10.3752   -1.8896   -5.8202 N   0  0  0  0  0  0  0  0  0  0  0  0
    6.4533   -1.3718   -3.1037 N   0  0  0  0  0  0  0  0  0  0  0  0
    5.1286   -1.2183   -2.9225 C   0  0  0  0  0  0  0  0  0  0  0  0
    4.6416   -1.2160   -1.6246 C   0  0  0  0  0  0  0  0  0  0  0  0
    3.2912   -1.0798   -1.3942 C   0  0  0  0  0  0  0  0  0  0  0  0
    3.9244   -1.0742   -6.4865 N   0  0  0  0  0  0  0  0  0  0  0  0
    0.6676   -0.9860    0.3335 H   0  0  0  0  0  0  0  0  0  0  0  0
    0.2502    0.7435    0.6996 H   0  0  0  0  0  0  0  0  0  0  0  0
    1.8869    0.3968    0.2574 H   0  0  0  0  0  0  0  0  0  0  0  0
   -0.5956    0.2131   -1.5240 H   0  0  0  0  0  0  0  0  0  0  0  0
    0.8174    1.3066   -1.7225 H   0  0  0  0  0  0  0  0  0  0  0  0
    2.1375   -0.7854   -4.5419 H   0  0  0  0  0  0  0  0  0  0  0  0
    8.9911   -1.6799   -3.5434 H   0  0  0  0  0  0  0  0  0  0  0  0
    8.6320   -1.7003   -7.8270 H   0  0  0  0  0  0  0  0  0  0  0  0
    6.2757   -1.3939   -7.6750 H   0  0  0  0  0  0  0  0  0  0  0  0
   10.8093   -1.9597   -6.7518 H   0  0  0  0  0  0  0  0  0  0  0  0
   10.9723   -1.9538   -4.9837 H   0  0  0  0  0  0  0  0  0  0  0  0
    5.3088   -1.3349   -0.7799 H   0  0  0  0  0  0  0  0  0  0  0  0
    2.9944   -1.1550   -0.3735 H   0  0  0  0  0  0  0  0  0  0  0  0
    2.9092   -0.9609   -6.4227 H   0  0  0  0  0  0  0  0  0  0  0  0
    4.2655   -1.1381   -7.4497 H   0  0  0  0  0  0  0  0  0  0  0  0
  1  2  1  0  0  0  0
  1 20  1  0  0  0  0
  1 21  1  0  0  0  0
  1 22  1  0  0  0  0
  2  3  1  0  0  0  0
  2 23  1  0  0  0  0
  2 24  1  0  0  0  0
  3  4  1  0  0  0  0
  4  5  2  0  0  0  0
  4 18  1  0  0  0  0
  5  6  1  0  0  0  0
  5 25  1  0  0  0  0
  6  7  2  0  0  0  0
  6 16  1  0  0  0  0
  7  8  1  0  0  0  0
  7 19  1  0  0  0  0
  8  9  2  0  0  0  0
  8 13  1  0  0  0  0
  9 10  1  0  0  0  0
  9 15  1  0  0  0  0
 10 11  2  0  0  0  0
 10 26  1  0  0  0  0
 11 12  1  0  0  0  0
 11 14  1  0  0  0  0
 12 13  2  0  0  0  0
 12 27  1  0  0  0  0
 13 28  1  0  0  0  0
 14 29  1  0  0  0  0
 14 30  1  0  0  0  0
 15 16  2  0  0  0  0
 16 17  1  0  0  0  0
 17 18  2  0  0  0  0
 17 31  1  0  0  0  0
 18 32  1  0  0  0  0
 19 33  1  0  0  0  0
 19 34  1  0  0  0  0
M  END
$$$$

 OpenBabel05152416213D

 59 60  0  0  0  0  0  0  0  0999 V2000
    0.9336   -0.1934    0.1525 C   0  0  0  0  0  0  0  0  0  0  0  0
    0.4843   -1.4821    0.5602 N   0  0  0  0  0  0  0  0  0  0  0  0
   -0.4249   -1.6501    1.6893 C   0  0  0  0  0  0  0  0  0  0  0  0
    0.8349   -2.5768   -0.2535 C   0  0  0  0  0  0  0  0  0  0  0  0
   -0.1819   -3.3933   -0.6205 C   0  0  0  0  0  0  0  0  0  0  0  0
    0.0346   -4.4280   -1.4455 C   0  0  0  0  0  0  0  0  0  0  0  0
    1.3084   -4.8184   -1.9156 C   0  0  0  0  0  0  0  0  0  0  0  0
    2.3680   -3.9302   -1.5855 C   0  0  0  0  0  0  0  0  0  0  0  0
    2.1292   -2.8018   -0.7770 C   0  0  0  0  0  0  0  0  0  0  0  0
    1.5156   -6.0321   -2.8257 C   0  0  0  0  0  0  0  0  0  0  0  0
    0.5183   -6.9255   -3.1835 C   0  0  0  0  0  0  0  0  0  0  0  0
   -0.8460   -6.9339   -2.6084 C   0  0  0  0  0  0  0  0  0  0  0  0
   -1.8946   -7.3795   -3.2462 C   0  0  0  0  0  0  0  0  0  0  0  0
   -1.7461   -8.0967   -4.5207 C   0  0  0  0  0  0  0  0  0  0  0  0
   -2.7660   -8.4072   -5.2555 N   0  3  0  0  0  0  0  0  0  0  0  0
   -4.1378   -7.9436   -4.9848 C   0  0  0  0  0  0  0  0  0  0  0  0
   -2.5855   -9.2455   -6.4283 C   0  0  0  0  0  0  0  0  0  0  0  0
   -0.3326   -8.5494   -4.8223 C   0  0  0  0  0  0  0  0  0  0  0  0
    0.7187   -8.0091   -4.1889 C   0  0  0  0  0  0  0  0  0  0  0  0
    2.8686   -6.2427   -3.4223 C   0  0  0  0  0  0  0  0  0  0  0  0
    3.0417   -6.2891   -4.8109 C   0  0  0  0  0  0  0  0  0  0  0  0
    4.2775   -6.5929   -5.3653 C   0  0  0  0  0  0  0  0  0  0  0  0
    5.4074   -6.8351   -4.5492 C   0  0  0  0  0  0  0  0  0  0  0  0
    5.2189   -6.7757   -3.1450 C   0  0  0  0  0  0  0  0  0  0  0  0
    3.9696   -6.4835   -2.5948 C   0  0  0  0  0  0  0  0  0  0  0  0
    6.7145   -7.1081   -5.1067 N   0  0  0  0  0  0  0  0  0  0  0  0
    6.9842   -7.1522   -6.5408 C   0  0  0  0  0  0  0  0  0  0  0  0
    7.8611   -7.2837   -4.2264 C   0  0  0  0  0  0  0  0  0  0  0  0
    1.9716    2.5232   -0.6826 Cl  0  5  0  0  0  0  0  0  0  0  0  0
    0.5294    0.5903    0.8170 H   0  0  0  0  0  0  0  0  0  0  0  0
    0.5480   -0.0162   -0.8816 H   0  0  0  0  0  0  0  0  0  0  0  0
    2.0372   -0.1792    0.1544 H   0  0  0  0  0  0  0  0  0  0  0  0
   -1.4174   -2.0415    1.3858 H   0  0  0  0  0  0  0  0  0  0  0  0
    0.0338   -2.3620    2.4066 H   0  0  0  0  0  0  0  0  0  0  0  0
   -0.6190   -0.6935    2.2060 H   0  0  0  0  0  0  0  0  0  0  0  0
   -1.2014   -3.2025   -0.3211 H   0  0  0  0  0  0  0  0  0  0  0  0
   -0.9031   -4.8006   -1.6711 H   0  0  0  0  0  0  0  0  0  0  0  0
    3.3726   -4.0705   -1.9603 H   0  0  0  0  0  0  0  0  0  0  0  0
    2.9518   -2.1355   -0.5547 H   0  0  0  0  0  0  0  0  0  0  0  0
   -1.0716   -6.6483   -1.6104 H   0  0  0  0  0  0  0  0  0  0  0  0
   -2.8350   -7.2648   -2.7305 H   0  0  0  0  0  0  0  0  0  0  0  0
   -4.5059   -7.3612   -5.8526 H   0  0  0  0  0  0  0  0  0  0  0  0
   -4.7982   -8.8095   -4.7901 H   0  0  0  0  0  0  0  0  0  0  0  0
   -4.2629   -7.2488   -4.1386 H   0  0  0  0  0  0  0  0  0  0  0  0
   -1.8798   -8.7556   -7.1324 H   0  0  0  0  0  0  0  0  0  0  0  0
   -2.1792  -10.2307   -6.1075 H   0  0  0  0  0  0  0  0  0  0  0  0
   -3.5454   -9.4245   -6.9481 H   0  0  0  0  0  0  0  0  0  0  0  0
   -0.1234   -9.3033   -5.5703 H   0  0  0  0  0  0  0  0  0  0  0  0
    1.7107   -8.3490   -4.4588 H   0  0  0  0  0  0  0  0  0  0  0  0
    2.2073   -6.1045   -5.4770 H   0  0  0  0  0  0  0  0  0  0  0  0
    4.2909   -6.6284   -6.4368 H   0  0  0  0  0  0  0  0  0  0  0  0
    6.0267   -6.9626   -2.4518 H   0  0  0  0  0  0  0  0  0  0  0  0
    3.8529   -6.4698   -1.5178 H   0  0  0  0  0  0  0  0  0  0  0  0
    7.7033   -6.3482   -6.7991 H   0  0  0  0  0  0  0  0  0  0  0  0
    7.4099   -8.1392   -6.8157 H   0  0  0  0  0  0  0  0  0  0  0  0
    6.1140   -7.0008   -7.1905 H   0  0  0  0  0  0  0  0  0  0  0  0
    7.9939   -6.3733   -3.6034 H   0  0  0  0  0  0  0  0  0  0  0  0
    7.7165   -8.1689   -3.5708 H   0  0  0  0  0  0  0  0  0  0  0  0
    8.7996   -7.4330   -4.8025 H   0  0  0  0  0  0  0  0  0  0  0  0
  1  2  1  0  0  0  0
  1 30  1  0  0  0  0
  1 31  1  0  0  0  0
  1 32  1  0  0  0  0
  2  3  1  0  0  0  0
  2  4  1  0  0  0  0
  3 33  1  0  0  0  0
  3 34  1  0  0  0  0
  3 35  1  0  0  0  0
  4  5  2  0  0  0  0
  4  9  1  0  0  0  0
  5  6  1  0  0  0  0
  5 36  1  0  0  0  0
  6  7  2  0  0  0  0
  6 37  1  0  0  0  0
  7  8  1  0  0  0  0
  7 10  1  0  0  0  0
  8  9  2  0  0  0  0
  8 38  1  0  0  0  0
  9 39  1  0  0  0  0
 10 11  2  0  0  0  0
 10 20  1  0  0  0  0
 11 12  1  0  0  0  0
 11 19  1  0  0  0  0
 12 13  2  0  0  0  0
 12 40  1  0  0  0  0
 13 14  1  0  0  0  0
 13 41  1  0  0  0  0
 14 15  2  0  0  0  0
 14 18  1  0  0  0  0
 15 16  1  0  0  0  0
 15 17  1  0  0  0  0
 16 42  1  0  0  0  0
 16 43  1  0  0  0  0
 16 44  1  0  0  0  0
 17 45  1  0  0  0  0
 17 46  1  0  0  0  0
 17 47  1  0  0  0  0
 18 19  2  0  0  0  0
 18 48  1  0  0  0  0
 19 49  1  0  0  0  0
 20 21  2  0  0  0  0
 20 25  1  0  0  0  0
 21 22  1  0  0  0  0
 21 50  1  0  0  0  0
 22 23  2  0  0  0  0
 22 51  1  0  0  0  0
 23 24  1  0  0  0  0
 23 26  1  0  0  0  0
 24 25  2  0  0  0  0
 24 52  1  0  0  0  0
 25 53  1  0  0  0  0
 26 27  1  0  0  0  0
 26 28  1  0  0  0  0
 27 54  1  0  0  0  0
 27 55  1  0  0  0  0
 27 56  1  0  0  0  0
 28 57  1  0  0  0  0
 28 58  1  0  0  0  0
 28 59  1  0  0  0  0
M  CHG  2  15   1  29  -1
M  END
$$$$

 OpenBabel05152416213D

 39 40  0  0  0  0  0  0  0  0999 V2000
    1.3931   -0.0155   -0.0284 C   0  0  0  0  0  0  0  0  0  0  0  0
    0.7813    1.1654    0.5689 N   0  0  0  0  0  0  0  0  0  0  0  0
   -0.1227    2.0739   -0.1458 C   0  0  0  0  0  0  0  0  0  0  0  0
    1.0943    1.4565    1.9160 C   0  0  0  0  0  0  0  0  0  0  0  0
    0.1127    1.9645    2.7469 C   0  0  0  0  0  0  0  0  0  0  0  0
    0.4286    2.2818    4.0315 C   0  0  0  0  0  0  0  0  0  0  0  0
    1.7265    2.1260    4.5643 C   0  0  0  0  0  0  0  0  0  0  0  0
    2.7084    1.5972    3.7363 C   0  0  0  0  0  0  0  0  0  0  0  0
    2.3928    1.2554    2.4245 C   0  0  0  0  0  0  0  0  0  0  0  0
    2.0493    2.4809    5.8455 N   0  0  0  0  0  0  0  0  0  0  0  0
    1.1875    3.0143    6.7522 C   0  0  0  0  0  0  0  0  0  0  0  0
    1.6048    3.3609    8.0299 C   0  0  0  0  0  0  0  0  0  0  0  0
    0.6824    3.9029    8.9331 C   0  0  0  0  0  0  0  0  0  0  0  0
   -0.7018    4.1222    8.5923 C   0  0  0  0  0  0  0  0  0  0  0  0
   -1.5575    4.6226    9.4354 N   0  3  0  0  0  0  0  0  0  0  0  0
   -2.9826    4.8659    9.1364 C   0  0  0  0  0  0  0  0  0  0  0  0
   -1.1315    4.9812   10.7780 C   0  0  0  0  0  0  0  0  0  0  0  0
   -1.0965    3.7705    7.3001 C   0  0  0  0  0  0  0  0  0  0  0  0
   -0.2209    3.2492    6.4244 C   0  0  0  0  0  0  0  0  0  0  0  0
   -0.7841    2.8815    4.9383 S   0  0  0  0  0  0  0  0  0  0  0  0
   -1.6698   -0.6511   -0.5204 Cl  0  5  0  0  0  0  0  0  0  0  0  0
    1.1012   -0.1760   -1.0799 H   0  0  0  0  0  0  0  0  0  0  0  0
    1.0988   -0.9087    0.5762 H   0  0  0  0  0  0  0  0  0  0  0  0
    2.4955    0.0413   -0.0068 H   0  0  0  0  0  0  0  0  0  0  0  0
   -1.1224    2.1440    0.3362 H   0  0  0  0  0  0  0  0  0  0  0  0
    0.3058    3.1028   -0.1305 H   0  0  0  0  0  0  0  0  0  0  0  0
   -0.2882    1.7822   -1.1970 H   0  0  0  0  0  0  0  0  0  0  0  0
   -0.9133    2.1126    2.4278 H   0  0  0  0  0  0  0  0  0  0  0  0
    3.7198    1.4606    4.0915 H   0  0  0  0  0  0  0  0  0  0  0  0
    3.1822    0.8761    1.8073 H   0  0  0  0  0  0  0  0  0  0  0  0
    2.6366    3.2145    8.3311 H   0  0  0  0  0  0  0  0  0  0  0  0
    1.0774    4.1461    9.9070 H   0  0  0  0  0  0  0  0  0  0  0  0
   -3.6097    4.2620    9.8185 H   0  0  0  0  0  0  0  0  0  0  0  0
   -3.2010    5.9452    9.2388 H   0  0  0  0  0  0  0  0  0  0  0  0
   -3.3632    4.6146    8.1389 H   0  0  0  0  0  0  0  0  0  0  0  0
   -0.7454    4.0745   11.2932 H   0  0  0  0  0  0  0  0  0  0  0  0
   -0.3361    5.7555   10.7152 H   0  0  0  0  0  0  0  0  0  0  0  0
   -1.9685    5.3894   11.3738 H   0  0  0  0  0  0  0  0  0  0  0  0
   -2.0809    3.8744    6.8969 H   0  0  0  0  0  0  0  0  0  0  0  0
  1  2  1  0  0  0  0
  1 22  1  0  0  0  0
  1 23  1  0  0  0  0
  1 24  1  0  0  0  0
  2  3  1  0  0  0  0
  2  4  1  0  0  0  0
  3 25  1  0  0  0  0
  3 26  1  0  0  0  0
  3 27  1  0  0  0  0
  4  5  2  0  0  0  0
  4  9  1  0  0  0  0
  5  6  1  0  0  0  0
  5 28  1  0  0  0  0
  6  7  2  0  0  0  0
  6 20  1  0  0  0  0
  7  8  1  0  0  0  0
  7 10  1  0  0  0  0
  8  9  2  0  0  0  0
  8 29  1  0  0  0  0
  9 30  1  0  0  0  0
 10 11  2  0  0  0  0
 11 12  1  0  0  0  0
 11 19  1  0  0  0  0
 12 13  2  0  0  0  0
 12 31  1  0  0  0  0
 13 14  1  0  0  0  0
 13 32  1  0  0  0  0
 14 15  2  0  0  0  0
 14 18  1  0  0  0  0
 15 16  1  0  0  0  0
 15 17  1  0  0  0  0
 16 33  1  0  0  0  0
 16 34  1  0  0  0  0
 16 35  1  0  0  0  0
 17 36  1  0  0  0  0
 17 37  1  0  0  0  0
 17 38  1  0  0  0  0
 18 19  2  0  0  0  0
 18 39  1  0  0  0  0
 19 20  1  0  0  0  0
M  CHG  2  15   1  21  -1
M  END
$$$$

 OpenBabel05152416213D

 55 57  0  0  1  0  0  0  0  0999 V2000
    1.0514    0.1486   -0.1644 C   0  0  0  0  0  0  0  0  0  0  0  0
    0.4722   -0.7091    0.9609 C   0  0  0  0  0  0  0  0  0  0  0  0
    0.9943   -0.3574    2.3567 C   0  0  0  0  0  0  0  0  0  0  0  0
   -0.9961   -0.8132    1.0014 N   0  0  0  0  0  0  0  0  0  0  0  0
   -1.8891    0.2101    0.8686 C   0  0  0  0  0  0  0  0  0  0  0  0
   -1.6429    1.5884    0.7329 C   0  0  0  0  0  0  0  0  0  0  0  0
   -2.7250    2.4576    0.5832 C   0  0  0  0  0  0  0  0  0  0  0  0
   -4.0363    1.9645    0.5996 C   0  0  0  0  0  0  0  0  0  0  0  0
   -4.2758    0.5901    0.7652 C   0  0  0  0  0  0  0  0  0  0  0  0
   -3.1727   -0.2655    0.8872 C   0  0  0  0  0  0  0  0  0  0  0  0
   -3.1105   -1.6317    1.0862 C   0  0  0  0  0  0  0  0  0  0  0  0
   -1.7566   -1.9539    1.1806 C   0  0  0  0  0  0  0  0  0  0  0  0
   -1.2885   -3.3726    1.3741 C   0  0  0  0  0  0  0  0  0  0  0  0
   -0.0260   -3.7591    1.6033 C   0  0  0  0  0  0  0  0  0  0  0  0
    0.4468   -5.1746    1.6617 C   0  0  1  0  0  0  0  0  0  0  0  0
    1.3613   -5.4531    0.4308 C   0  0  0  0  0  0  0  0  0  0  0  0
    2.6384   -4.5663    0.2614 C   0  0  1  0  0  0  0  0  0  0  0  0
    3.6357   -4.5873    1.4463 C   0  0  0  0  0  0  0  0  0  0  0  0
    4.1190   -5.9775    1.7883 C   0  0  0  0  0  0  0  0  0  0  0  0
    5.3090   -6.2354    1.7389 O   0  0  0  0  0  0  0  0  0  0  0  0
    3.2562   -6.9430    2.1605 O   0  5  0  0  0  0  0  0  0  0  0  0
    3.3019   -4.9149   -0.9285 O   0  0  0  0  0  0  0  0  0  0  0  0
    1.1075   -5.4376    2.8800 O   0  0  0  0  0  0  0  0  0  0  0  0
   -4.2757   -2.5294    1.2255 C   0  0  0  0  0  0  0  0  0  0  0  0
   -5.2799   -2.5347    0.2462 C   0  0  0  0  0  0  0  0  0  0  0  0
   -6.4235   -3.3189    0.4142 C   0  0  0  0  0  0  0  0  0  0  0  0
   -6.5759   -4.0972    1.5651 C   0  0  0  0  0  0  0  0  0  0  0  0
   -5.5664   -4.1203    2.5323 C   0  0  0  0  0  0  0  0  0  0  0  0
   -4.4146   -3.3453    2.3614 C   0  0  0  0  0  0  0  0  0  0  0  0
   -7.7063   -4.8231    1.7460 F   0  0  0  0  0  0  0  0  0  0  0  0
    0.9229    1.2225   -0.0577 H   0  0  0  0  0  0  0  0  0  0  0  0
    0.6269   -0.1903   -1.1351 H   0  0  0  0  0  0  0  0  0  0  0  0
    2.1536    0.0091   -0.1833 H   0  0  0  0  0  0  0  0  0  0  0  0
    0.8749   -1.6345    0.5620 H   0  0  0  0  0  0  0  0  0  0  0  0
    0.6207    0.6441    2.6554 H   0  0  0  0  0  0  0  0  0  0  0  0
    0.6170   -1.0964    3.1006 H   0  0  0  0  0  0  0  0  0  0  0  0
    2.1015   -0.3715    2.3820 H   0  0  0  0  0  0  0  0  0  0  0  0
   -0.6812    2.0436    0.7565 H   0  0  0  0  0  0  0  0  0  0  0  0
   -2.5359    3.5172    0.4657 H   0  0  0  0  0  0  0  0  0  0  0  0
   -4.8592    2.6575    0.4982 H   0  0  0  0  0  0  0  0  0  0  0  0
   -5.2887    0.2179    0.8040 H   0  0  0  0  0  0  0  0  0  0  0  0
   -2.0355   -4.1587    1.2965 H   0  0  0  0  0  0  0  0  0  0  0  0
    0.7810   -3.1007    1.7606 H   0  0  0  0  0  0  0  0  0  0  0  0
   -0.4243   -5.8594    1.5986 H   0  0  0  0  0  0  0  0  0  0  0  0
    1.6464   -6.5220    0.4353 H   0  0  0  0  0  0  0  0  0  0  0  0
    0.7465   -5.3158   -0.4893 H   0  0  0  0  0  0  0  0  0  0  0  0
    2.3203   -3.5095    0.1287 H   0  0  0  0  0  0  0  0  0  0  0  0
    4.5035   -3.9415    1.1894 H   0  0  0  0  0  0  0  0  0  0  0  0
    3.1952   -4.1144    2.3391 H   0  0  0  0  0  0  0  0  0  0  0  0
    3.6771   -5.8254   -0.8117 H   0  0  0  0  0  0  0  0  0  0  0  0
    1.3870   -4.5851    3.3124 H   0  0  0  0  0  0  0  0  0  0  0  0
   -5.1703   -1.9371   -0.6506 H   0  0  0  0  0  0  0  0  0  0  0  0
   -7.1967   -3.3113   -0.3426 H   0  0  0  0  0  0  0  0  0  0  0  0
   -5.6835   -4.7245    3.4229 H   0  0  0  0  0  0  0  0  0  0  0  0
   -3.6557   -3.3473    3.1345 H   0  0  0  0  0  0  0  0  0  0  0  0
  1  2  1  0  0  0  0
  1 31  1  0  0  0  0
  1 32  1  0  0  0  0
  1 33  1  0  0  0  0
  2  3  1  0  0  0  0
  2  4  1  0  0  0  0
  2 34  1  0  0  0  0
  3 35  1  0  0  0  0
  3 36  1  0  0  0  0
  3 37  1  0  0  0  0
  4  5  1  0  0  0  0
  4 12  1  0  0  0  0
  5  6  2  0  0  0  0
  5 10  1  0  0  0  0
  6  7  1  0  0  0  0
  6 38  1  0  0  0  0
  7  8  2  0  0  0  0
  7 39  1  0  0  0  0
  8  9  1  0  0  0  0
  8 40  1  0  0  0  0
  9 10  2  0  0  0  0
  9 41  1  0  0  0  0
 10 11  1  0  0  0  0
 11 12  2  0  0  0  0
 11 24  1  0  0  0  0
 12 13  1  0  0  0  0
 13 14  2  0  0  0  0
 13 42  1  0  0  0  0
 14 15  1  0  0  0  0
 14 43  1  0  0  0  0
 15 16  1  0  0  0  0
 15 23  1  0  0  0  0
 15 44  1  6  0  0  0
 16 17  1  0  0  0  0
 16 45  1  0  0  0  0
 16 46  1  0  0  0  0
 17 18  1  0  0  0  0
 17 22  1  0  0  0  0
 17 47  1  6  0  0  0
 18 19  1  0  0  0  0
 18 48  1  0  0  0  0
 18 49  1  0  0  0  0
 19 20  2  0  0  0  0
 19 21  1  0  0  0  0
 22 50  1  0  0  0  0
 23 51  1  0  0  0  0
 24 25  2  0  0  0  0
 24 29  1  0  0  0  0
 25 26  1  0  0  0  0
 25 52  1  0  0  0  0
 26 27  2  0  0  0  0
 26 53  1  0  0  0  0
 27 28  1  0  0  0  0
 27 30  1  0  0  0  0
 28 29  2  0  0  0  0
 28 54  1  0  0  0  0
 29 55  1  0  0  0  0
M  CHG  1  21  -1
M  END
$$$$

 OpenBabel05152416213D

 52 56  0  0  1  0  0  0  0  0999 V2000
    0.8262    0.3237   -0.3805 C   0  0  0  0  0  0  0  0  0  0  0  0
    0.5906   -0.8395    0.8911 C   0  0  2  0  0  0  0  0  0  0  0  0
   -0.8636   -0.6087    1.5313 C   0  0  0  0  0  0  0  0  0  0  0  0
   -1.8513   -0.2417    0.3639 C   0  0  0  0  0  0  0  0  0  0  0  0
   -2.0809   -1.5050   -0.5042 C   0  0  1  0  0  0  0  0  0  0  0  0
   -0.6276   -1.9973   -0.9372 C   0  0  2  0  0  0  0  0  0  0  0  0
    0.7557   -1.7339    0.1750 C   0  0  2  0  0  0  0  0  0  0  0  0
    1.8349   -0.4077    1.5897 C   0  0  0  0  0  0  0  0  0  0  0  0
    2.2324   -0.9802    2.7963 C   0  0  0  0  0  0  0  0  0  0  0  0
    1.9886   -1.8210    1.6508 C   0  0  1  0  0  0  0  0  0  0  0  0
    2.0147   -3.2510    2.0980 C   0  0  0  0  0  0  0  0  0  0  0  0
    2.5288   -4.3452    2.0773 C   0  0  0  0  0  0  0  0  0  0  0  0
    3.2110   -1.9741    0.7395 O   0  0  0  0  0  0  0  0  0  0  0  0
   -0.9086   -3.5389   -1.4252 C   0  0  0  0  0  0  0  0  0  0  0  0
   -2.0198   -3.4302   -2.4591 C   0  0  0  0  0  0  0  0  0  0  0  0
   -3.4123   -2.9127   -1.7100 C   0  0  0  0  0  0  0  0  0  0  0  0
   -4.7215   -3.3670   -1.8123 C   0  0  0  0  0  0  0  0  0  0  0  0
   -4.8268   -4.0482   -2.8483 C   0  0  0  0  0  0  0  0  0  0  0  0
   -4.2752   -3.5440   -3.9764 C   0  0  0  0  0  0  0  0  0  0  0  0
   -3.6218   -1.6868   -3.3580 C   0  0  0  0  0  0  0  0  0  0  0  0
   -3.3571   -1.5420   -1.6435 C   0  0  2  0  0  0  0  0  0  0  0  0
   -4.5410   -0.7819   -0.9154 C   0  0  0  0  0  0  0  0  0  0  0  0
   -4.4896   -4.8149   -4.8460 C   0  0  0  0  0  0  0  0  0  0  0  0
   -5.1893   -5.7234   -4.0655 N   0  0  0  0  0  0  0  0  0  0  0  0
   -5.3745   -5.2262   -2.8984 O   0  0  0  0  0  0  0  0  0  0  0  0
    0.6296    1.2591    0.1693 H   0  0  0  0  0  0  0  0  0  0  0  0
    0.3214    0.3044   -1.3329 H   0  0  0  0  0  0  0  0  0  0  0  0
    1.9072    0.2553   -0.6732 H   0  0  0  0  0  0  0  0  0  0  0  0
   -1.3939   -1.2525    2.2912 H   0  0  0  0  0  0  0  0  0  0  0  0
   -0.5967    0.2436    2.1559 H   0  0  0  0  0  0  0  0  0  0  0  0
   -2.7617    0.2848    0.6156 H   0  0  0  0  0  0  0  0  0  0  0  0
   -1.4492    0.6092   -0.1502 H   0  0  0  0  0  0  0  0  0  0  0  0
   -2.4440   -2.2441    0.2856 H   0  0  0  0  0  0  0  0  0  0  0  0
   -0.4543   -1.4227   -1.8497 H   0  0  0  0  0  0  0  0  0  0  0  0
    0.4583   -2.7871    0.4844 H   0  0  0  0  0  0  0  0  0  0  0  0
    2.4237    0.6244    1.7753 H   0  0  0  0  0  0  0  0  0  0  0  0
    2.2694    0.7117    1.5176 H   0  0  0  0  0  0  0  0  0  0  0  0
    2.2146   -1.2124    3.8781 H   0  0  0  0  0  0  0  0  0  0  0  0
    1.3458   -0.5019    3.2982 H   0  0  0  0  0  0  0  0  0  0  0  0
    3.1736   -5.1885    2.0695 H   0  0  0  0  0  0  0  0  0  0  0  0
    2.9841   -2.5037   -0.0806 H   0  0  0  0  0  0  0  0  0  0  0  0
   -0.9779   -4.5995   -1.7770 H   0  0  0  0  0  0  0  0  0  0  0  0
    0.0595   -3.6866   -1.8783 H   0  0  0  0  0  0  0  0  0  0  0  0
   -2.0467   -3.9781   -3.4667 H   0  0  0  0  0  0  0  0  0  0  0  0
   -1.5246   -2.6818   -3.1621 H   0  0  0  0  0  0  0  0  0  0  0  0
   -5.7054   -2.8855   -1.7399 H   0  0  0  0  0  0  0  0  0  0  0  0
   -3.3427   -0.6189   -3.7200 H   0  0  0  0  0  0  0  0  0  0  0  0
   -2.6988   -0.9727   -3.2100 H   0  0  0  0  0  0  0  0  0  0  0  0
   -5.4705   -1.2956   -0.7611 H   0  0  0  0  0  0  0  0  0  0  0  0
   -4.4231   -0.6871    0.1734 H   0  0  0  0  0  0  0  0  0  0  0  0
   -4.7793    0.1826   -1.3998 H   0  0  0  0  0  0  0  0  0  0  0  0
   -4.3224   -5.4038   -5.7909 H   0  0  0  0  0  0  0  0  0  0  0  0
  1 26  1  0  0  0  0
  1 27  1  0  0  0  0
  1 28  1  0  0  0  0
  2  3  1  0  0  0  0
  2  7  1  0  0  0  0
  2 10  1  0  0  0  0
  2  1  1  1  0  0  0
  3  4  1  0  0  0  0
  3 29  1  0  0  0  0
  3 30  1  0  0  0  0
  4  5  1  0  0  0  0
  4 31  1  0  0  0  0
  4 32  1  0  0  0  0
  5  6  1  0  0  0  0
  5 21  1  0  0  0  0
  5 33  1  6  0  0  0
  6  7  1  0  0  0  0
  6 14  1  0  0  0  0
  6 34  1  1  0  0  0
  7  8  1  0  0  0  0
  7 35  1  6  0  0  0
  8  9  1  0  0  0  0
  8 36  1  0  0  0  0
  8 37  1  0  0  0  0
  9 10  1  0  0  0  0
  9 38  1  0  0  0  0
  9 39  1  0  0  0  0
 10 11  1  1  0  0  0
 10 13  1  0  0  0  0
 11 12  3  0  0  0  0
 12 40  1  0  0  0  0
 13 41  1  0  0  0  0
 14 15  1  0  0  0  0
 14 42  1  0  0  0  0
 14 43  1  0  0  0  0
 15 16  1  0  0  0  0
 15 44  1  0  0  0  0
 15 45  1  0  0  0  0
 16 17  2  0  0  0  0
 16 21  1  0  0  0  0
 17 18  1  0  0  0  0
 17 46  1  0  0  0  0
 18 19  2  0  0  0  0
 18 25  1  0  0  0  0
 19 20  1  0  0  0  0
 19 23  1  0  0  0  0
 20 21  1  0  0  0  0
 20 47  1  0  0  0  0
 20 48  1  0  0  0  0
 21 22  1  1  0  0  0
 22 49  1  0  0  0  0
 22 50  1  0  0  0  0
 22 51  1  0  0  0  0
 23 24  2  0  0  0  0
 23 52  1  0  0  0  0
 24 25  1  0  0  0  0
M  END
$$$$

 OpenBabel05152416213D

 49 49  0  0  0  0  0  0  0  0999 V2000
    2.7275   -1.1237    0.0200 C   0  0  0  0  0  0  0  0  0  0  0  0
    1.3666   -0.4376    0.0088 C   0  0  0  0  0  0  0  0  0  0  0  0
    0.1385   -1.0711    0.1295 C   0  0  0  0  0  0  0  0  0  0  0  0
   -1.1821   -0.2563   -0.0160 C   0  0  0  0  0  0  0  0  0  0  0  0
   -0.9220    1.1824   -0.5548 C   0  0  0  0  0  0  0  0  0  0  0  0
    0.2317    1.8477    0.1501 C   0  0  0  0  0  0  0  0  0  0  0  0
    1.5003    1.0674   -0.1625 C   0  0  0  0  0  0  0  0  0  0  0  0
   -2.1318   -0.8682   -1.0968 C   0  0  0  0  0  0  0  0  0  0  0  0
   -1.8723   -0.1652    1.3735 C   0  0  0  0  0  0  0  0  0  0  0  0
    0.0845   -2.5603    0.3908 C   0  0  0  0  0  0  0  0  0  0  0  0
   -1.0197   -3.3001    0.6306 C   0  0  0  0  0  0  0  0  0  0  0  0
   -0.9957   -4.7695    0.8316 C   0  0  0  0  0  0  0  0  0  0  0  0
   -2.1869   -5.4075    0.9203 C   0  0  0  0  0  0  0  0  0  0  0  0
   -2.3194   -6.8595    1.1275 C   0  0  0  0  0  0  0  0  0  0  0  0
   -3.5051   -7.4633    1.2098 C   0  0  0  0  0  0  0  0  0  0  0  0
   -3.6074   -8.9384    1.4547 C   0  0  0  0  0  0  0  0  0  0  0  0
   -4.7985   -9.5660    1.5508 C   0  0  0  0  0  0  0  0  0  0  0  0
   -6.1199   -8.9081    1.4253 C   0  0  0  0  0  0  0  0  0  0  0  0
   -7.1330   -9.5726    1.5315 O   0  0  0  0  0  0  0  0  0  0  0  0
   -2.3375   -9.7609    1.6133 C   0  0  0  0  0  0  0  0  0  0  0  0
    0.3462   -5.4700    0.9177 C   0  0  0  0  0  0  0  0  0  0  0  0
    3.2392   -0.9032   -0.9407 H   0  0  0  0  0  0  0  0  0  0  0  0
    3.3432   -0.7114    0.8466 H   0  0  0  0  0  0  0  0  0  0  0  0
    2.7639   -2.2150    0.1275 H   0  0  0  0  0  0  0  0  0  0  0  0
   -0.6526    1.1527   -1.6365 H   0  0  0  0  0  0  0  0  0  0  0  0
   -1.8464    1.7937   -0.4626 H   0  0  0  0  0  0  0  0  0  0  0  0
    0.3567    2.8946   -0.2013 H   0  0  0  0  0  0  0  0  0  0  0  0
    0.0476    1.8801    1.2417 H   0  0  0  0  0  0  0  0  0  0  0  0
    2.2819    1.4680    0.5204 H   0  0  0  0  0  0  0  0  0  0  0  0
    1.8317    1.2543   -1.2070 H   0  0  0  0  0  0  0  0  0  0  0  0
   -2.5043   -1.8889   -0.9635 H   0  0  0  0  0  0  0  0  0  0  0  0
   -3.0491   -0.2507   -1.1909 H   0  0  0  0  0  0  0  0  0  0  0  0
   -1.6157   -0.8949   -2.0804 H   0  0  0  0  0  0  0  0  0  0  0  0
   -2.8169    0.4117    1.3031 H   0  0  0  0  0  0  0  0  0  0  0  0
   -2.1215   -1.1376    1.8266 H   0  0  0  0  0  0  0  0  0  0  0  0
   -1.2132    0.3295    2.1150 H   0  0  0  0  0  0  0  0  0  0  0  0
    0.9988   -3.1074    0.3849 H   0  0  0  0  0  0  0  0  0  0  0  0
   -1.9933   -2.8666    0.6899 H   0  0  0  0  0  0  0  0  0  0  0  0
   -3.1100   -4.8312    0.8332 H   0  0  0  0  0  0  0  0  0  0  0  0
   -1.4451   -7.4612    1.2292 H   0  0  0  0  0  0  0  0  0  0  0  0
   -4.3862   -6.8441    1.1041 H   0  0  0  0  0  0  0  0  0  0  0  0
   -4.8101  -10.6369    1.7362 H   0  0  0  0  0  0  0  0  0  0  0  0
   -6.2252   -7.8473    1.2403 H   0  0  0  0  0  0  0  0  0  0  0  0
   -1.7204   -9.6865    0.6912 H   0  0  0  0  0  0  0  0  0  0  0  0
   -1.7448   -9.3770    2.4729 H   0  0  0  0  0  0  0  0  0  0  0  0
   -2.5348  -10.8361    1.7989 H   0  0  0  0  0  0  0  0  0  0  0  0
    0.8947   -5.3123   -0.0326 H   0  0  0  0  0  0  0  0  0  0  0  0
    0.9102   -5.0348    1.7672 H   0  0  0  0  0  0  0  0  0  0  0  0
    0.3380   -6.5542    1.0795 H   0  0  0  0  0  0  0  0  0  0  0  0
  1  2  1  0  0  0  0
  1 22  1  0  0  0  0
  1 23  1  0  0  0  0
  1 24  1  0  0  0  0
  2  3  2  0  0  0  0
  2  7  1  0  0  0  0
  3  4  1  0  0  0  0
  3 10  1  0  0  0  0
  4  5  1  0  0  0  0
  4  8  1  0  0  0  0
  4  9  1  0  0  0  0
  5  6  1  0  0  0  0
  5 25  1  0  0  0  0
  5 26  1  0  0  0  0
  6  7  1  0  0  0  0
  6 27  1  0  0  0  0
  6 28  1  0  0  0  0
  7 29  1  0  0  0  0
  7 30  1  0  0  0  0
  8 31  1  0  0  0  0
  8 32  1  0  0  0  0
  8 33  1  0  0  0  0
  9 34  1  0  0  0  0
  9 35  1  0  0  0  0
  9 36  1  0  0  0  0
 10 11  2  0  0  0  0
 10 37  1  0  0  0  0
 11 12  1  0  0  0  0
 11 38  1  0  0  0  0
 12 13  2  0  0  0  0
 12 21  1  0  0  0  0
 13 14  1  0  0  0  0
 13 39  1  0  0  0  0
 14 15  2  0  0  0  0
 14 40  1  0  0  0  0
 15 16  1  0  0  0  0
 15 41  1  0  0  0  0
 16 17  2  0  0  0  0
 16 20  1  0  0  0  0
 17 18  1  0  0  0  0
 17 42  1  0  0  0  0
 18 19  2  0  0  0  0
 18 43  1  0  0  0  0
 20 44  1  0  0  0  0
 20 45  1  0  0  0  0
 20 46  1  0  0  0  0
 21 47  1  0  0  0  0
 21 48  1  0  0  0  0
 21 49  1  0  0  0  0
M  END
$$$$

 OpenBabel05152416213D

 48 51  0  0  1  0  0  0  0  0999 V2000
    2.5294   -0.1160   -0.0126 C   0  0  0  0  0  0  0  0  0  0  0  0
    1.0235    0.0045    0.0007 C   0  0  0  0  0  0  0  0  0  0  0  0
    0.2909   -1.1980    0.0017 C   0  0  0  0  0  0  0  0  0  0  0  0
   -1.1046   -1.1918    0.0013 C   0  0  0  0  0  0  0  0  0  0  0  0
   -1.7951    0.0167    0.0014 C   0  0  0  0  0  0  0  0  0  0  0  0
   -1.0909    1.2232    0.0056 C   0  0  0  0  0  0  0  0  0  0  0  0
    0.3222    1.2418    0.0049 C   0  0  0  0  0  0  0  0  0  0  0  0
    1.0129    2.5932   -0.0147 C   0  0  0  0  0  0  0  0  0  0  0  0
    0.6014    3.3029   -1.2017 N   0  0  0  0  0  0  0  0  0  0  0  0
    0.0233    4.5860   -1.0992 C   0  0  0  0  0  0  0  0  0  0  0  0
   -1.0361    4.9669   -1.9103 C   0  0  0  0  0  0  0  0  0  0  0  0
   -1.5853    6.1944   -1.7619 C   0  0  0  0  0  0  0  0  0  0  0  0
   -1.1179    7.0924   -0.8656 N   0  0  0  0  0  0  0  0  0  0  0  0
   -0.0666    6.7320   -0.0687 C   0  0  0  0  0  0  0  0  0  0  0  0
    0.4788    5.4815   -0.1763 N   0  0  0  0  0  0  0  0  0  0  0  0
   -2.6265    6.3180   -2.6079 N   0  0  0  0  0  0  0  0  0  0  0  0
   -2.6746    5.1256   -3.2527 C   0  0  0  0  0  0  0  0  0  0  0  0
   -1.6995    4.2675   -2.8440 N   0  0  0  0  0  0  0  0  0  0  0  0
   -3.5262    7.4663   -2.8089 C   0  0  1  0  0  0  0  0  0  0  0  0
   -4.2615    7.8322   -1.5175 C   0  0  1  0  0  0  0  0  0  0  0  0
   -4.5168    9.3005   -1.7156 C   0  0  1  0  0  0  0  0  0  0  0  0
   -3.2641    9.7306   -2.5007 C   0  0  2  0  0  0  0  0  0  0  0  0
   -2.7968    8.6082   -3.2423 O   0  0  0  0  0  0  0  0  0  0  0  0
   -2.1048   10.2797   -1.6396 C   0  0  0  0  0  0  0  0  0  0  0  0
   -2.5461   11.0632   -0.5618 O   0  0  0  0  0  0  0  0  0  0  0  0
   -5.6806    9.5523   -2.4732 O   0  0  0  0  0  0  0  0  0  0  0  0
   -5.4226    7.0717   -1.2736 O   0  0  0  0  0  0  0  0  0  0  0  0
    2.8597   -0.6742    0.8860 H   0  0  0  0  0  0  0  0  0  0  0  0
    2.8417   -0.6551   -0.9296 H   0  0  0  0  0  0  0  0  0  0  0  0
    3.0969    0.8234   -0.0085 H   0  0  0  0  0  0  0  0  0  0  0  0
    0.8069   -2.1505   -0.0005 H   0  0  0  0  0  0  0  0  0  0  0  0
   -1.6513   -2.1273   -0.0013 H   0  0  0  0  0  0  0  0  0  0  0  0
   -2.8789    0.0176   -0.0040 H   0  0  0  0  0  0  0  0  0  0  0  0
   -1.6533    2.1496    0.0009 H   0  0  0  0  0  0  0  0  0  0  0  0
    0.7234    3.1478    0.9054 H   0  0  0  0  0  0  0  0  0  0  0  0
    2.1059    2.5620   -0.0116 H   0  0  0  0  0  0  0  0  0  0  0  0
    0.6336    2.8209   -2.1129 H   0  0  0  0  0  0  0  0  0  0  0  0
    0.3367    7.4304    0.6510 H   0  0  0  0  0  0  0  0  0  0  0  0
   -3.4088    4.8739   -4.0053 H   0  0  0  0  0  0  0  0  0  0  0  0
   -4.2655    7.2331   -3.6073 H   0  0  0  0  0  0  0  0  0  0  0  0
   -3.5708    7.7374   -0.6554 H   0  0  0  0  0  0  0  0  0  0  0  0
   -4.6608    9.8336   -0.7528 H   0  0  0  0  0  0  0  0  0  0  0  0
   -3.5683   10.5577   -3.1793 H   0  0  0  0  0  0  0  0  0  0  0  0
   -1.5099    9.4546   -1.2227 H   0  0  0  0  0  0  0  0  0  0  0  0
   -1.4164   10.8759   -2.2825 H   0  0  0  0  0  0  0  0  0  0  0  0
   -3.1782   11.7379   -0.9153 H   0  0  0  0  0  0  0  0  0  0  0  0
   -5.6214    9.0842   -3.3428 H   0  0  0  0  0  0  0  0  0  0  0  0
   -6.0369    7.1853   -2.0486 H   0  0  0  0  0  0  0  0  0  0  0  0
  1  2  1  0  0  0  0
  1 28  1  0  0  0  0
  1 29  1  0  0  0  0
  1 30  1  0  0  0  0
  2  3  2  0  0  0  0
  2  7  1  0  0  0  0
  3  4  1  0  0  0  0
  3 31  1  0  0  0  0
  4  5  2  0  0  0  0
  4 32  1  0  0  0  0
  5  6  1  0  0  0  0
  5 33  1  0  0  0  0
  6  7  2  0  0  0  0
  6 34  1  0  0  0  0
  7  8  1  0  0  0  0
  8  9  1  0  0  0  0
  8 35  1  0  0  0  0
  8 36  1  0  0  0  0
  9 10  1  0  0  0  0
  9 37  1  0  0  0  0
 10 11  2  0  0  0  0
 10 15  1  0  0  0  0
 11 12  1  0  0  0  0
 11 18  1  0  0  0  0
 12 13  2  0  0  0  0
 12 16  1  0  0  0  0
 13 14  1  0  0  0  0
 14 15  2  0  0  0  0
 14 38  1  0  0  0  0
 16 17  1  0  0  0  0
 16 19  1  0  0  0  0
 17 18  2  0  0  0  0
 17 39  1  0  0  0  0
 19 20  1  0  0  0  0
 19 23  1  0  0  0  0
 19 40  1  6  0  0  0
 20 21  1  0  0  0  0
 20 27  1  0  0  0  0
 20 41  1  1  0  0  0
 21 22  1  0  0  0  0
 21 26  1  0  0  0  0
 21 42  1  1  0  0  0
 22 23  1  0  0  0  0
 22 43  1  6  0  0  0
 22 24  1  0  0  0  0
 24 25  1  0  0  0  0
 24 44  1  0  0  0  0
 24 45  1  0  0  0  0
 25 46  1  0  0  0  0
 26 47  1  0  0  0  0
 27 48  1  0  0  0  0
M  END
$$$$

 OpenBabel05152416213D

 58 57  0  0  0  0  0  0  0  0999 V2000
   -0.1054   -0.5572    0.4880 C   0  0  0  0  0  0  0  0  0  0  0  0
   -0.0396    1.4031    0.7250 C   0  0  0  0  0  0  0  0  0  0  0  0
    0.8418    2.6039   -0.1357 C   0  0  0  0  0  0  0  0  0  0  0  0
    0.4798    2.7219   -1.6404 C   0  0  0  0  0  0  0  0  0  0  0  0
   -1.0462    2.4591   -1.6384 C   0  0  0  0  0  0  0  0  0  0  0  0
   -1.5981    3.6693   -0.9047 C   0  0  0  0  0  0  0  0  0  0  0  0
   -1.0736    4.8872   -1.6305 C   0  0  0  0  0  0  0  0  0  0  0  0
   -1.5413    4.8024   -3.0562 C   0  0  0  0  0  0  0  0  0  0  0  0
   -3.0662    4.8182   -3.0992 C   0  0  0  0  0  0  0  0  0  0  0  0
   -3.5772    6.0760   -2.4256 C   0  0  0  0  0  0  0  0  0  0  0  0
   -3.1269    7.2568   -3.1542 N   0  0  0  0  0  0  0  0  0  0  0  0
   -2.4022    7.3558   -4.3029 C   0  0  0  0  0  0  0  0  0  0  0  0
   -2.2984    8.6527   -4.6441 C   0  0  0  0  0  0  0  0  0  0  0  0
   -2.9656    9.3671   -3.7339 N   0  3  0  0  0  0  0  0  0  0  0  0
   -3.4446    8.5105   -2.8201 C   0  0  0  0  0  0  0  0  0  0  0  0
   -3.1567   10.7910   -3.7737 C   0  0  0  0  0  0  0  0  0  0  0  0
    1.8846   -0.3490   -0.6524 C   0  0  0  0  0  0  0  0  0  0  0  0
    1.0173   -2.2185   -0.5841 F   0  0  0  0  0  0  0  0  0  0  0  0
    1.8336    0.4216    0.9537 F   0  0  0  0  0  0  0  0  0  0  0  0
    0.9882    0.5135   -1.5015 F   0  0  0  0  0  0  0  0  0  0  0  0
    3.5160   -0.1251   -0.1917 S   0  0  0  0  0  0  0  0  0  0  0  0
    3.6148   -0.5241    1.3511 O   0  0  0  0  0  0  0  0  0  0  0  0
    3.6058   -1.2016   -1.2113 O   0  0  0  0  0  0  0  0  0  0  0  0
    3.6594    1.5092   -0.6203 N   0  5  0  0  0  0  0  0  0  0  0  0
    5.3390    1.6242   -0.5712 S   0  0  0  0  0  0  0  0  0  0  0  0
    5.7736    1.2129    0.8518 O   0  0  0  0  0  0  0  0  0  0  0  0
    5.8163    0.5203   -1.5344 O   0  0  0  0  0  0  0  0  0  0  0  0
    5.8069    3.2047   -1.0270 C   0  0  0  0  0  0  0  0  0  0  0  0
    5.3105    3.4672   -2.2816 F   0  0  0  0  0  0  0  0  0  0  0  0
    5.3097    4.1006   -0.1094 F   0  0  0  0  0  0  0  0  0  0  0  0
    7.1685    3.1817   -1.0188 F   0  0  0  0  0  0  0  0  0  0  0  0
   -0.2523   -0.8857   -0.9746 H   0  0  0  0  0  0  0  0  0  0  0  0
    0.1300   -1.1248    1.2805 H   0  0  0  0  0  0  0  0  0  0  0  0
    1.4405   -1.4209    1.0330 H   0  0  0  0  0  0  0  0  0  0  0  0
   -1.0516    1.3912    0.7256 H   0  0  0  0  0  0  0  0  0  0  0  0
    0.4719    1.9535    1.7573 H   0  0  0  0  0  0  0  0  0  0  0  0
    0.6876    3.5767    0.3750 H   0  0  0  0  0  0  0  0  0  0  0  0
    1.9214    2.6327   -0.0429 H   0  0  0  0  0  0  0  0  0  0  0  0
    0.9452    3.4715   -2.2270 H   0  0  0  0  0  0  0  0  0  0  0  0
    1.1375    2.2365   -2.4144 H   0  0  0  0  0  0  0  0  0  0  0  0
   -1.4277    2.2788   -2.6345 H   0  0  0  0  0  0  0  0  0  0  0  0
   -1.4596    1.5356   -1.1817 H   0  0  0  0  0  0  0  0  0  0  0  0
   -2.6697    3.6097   -0.8208 H   0  0  0  0  0  0  0  0  0  0  0  0
   -1.3020    3.7476    0.1429 H   0  0  0  0  0  0  0  0  0  0  0  0
   -1.3429    5.7846   -1.1154 H   0  0  0  0  0  0  0  0  0  0  0  0
    0.0156    5.0076   -1.6075 H   0  0  0  0  0  0  0  0  0  0  0  0
   -1.0330    5.6069   -3.5191 H   0  0  0  0  0  0  0  0  0  0  0  0
   -1.1585    3.9490   -3.6280 H   0  0  0  0  0  0  0  0  0  0  0  0
   -3.4254    4.7724   -4.1311 H   0  0  0  0  0  0  0  0  0  0  0  0
   -3.4828    3.9267   -2.6073 H   0  0  0  0  0  0  0  0  0  0  0  0
   -4.6731    6.0589   -2.4045 H   0  0  0  0  0  0  0  0  0  0  0  0
   -3.2798    6.1244   -1.3611 H   0  0  0  0  0  0  0  0  0  0  0  0
   -1.9808    6.5775   -4.9186 H   0  0  0  0  0  0  0  0  0  0  0  0
   -1.8006    9.0360   -5.5163 H   0  0  0  0  0  0  0  0  0  0  0  0
   -4.0391    8.7871   -1.9587 H   0  0  0  0  0  0  0  0  0  0  0  0
   -4.2387   11.0084   -3.8326 H   0  0  0  0  0  0  0  0  0  0  0  0
   -2.7260   11.2341   -2.8661 H   0  0  0  0  0  0  0  0  0  0  0  0
   -2.6555   11.2052   -4.6689 H   0  0  0  0  0  0  0  0  0  0  0  0
  1  2  1  0  0  0  0
  1 32  1  0  0  0  0
  1 33  1  0  0  0  0
  1 34  1  0  0  0  0
  2  3  1  0  0  0  0
  2 35  1  0  0  0  0
  2 36  1  0  0  0  0
  3  4  1  0  0  0  0
  3 37  1  0  0  0  0
  3 38  1  0  0  0  0
  4  5  1  0  0  0  0
  4 39  1  0  0  0  0
  4 40  1  0  0  0  0
  5  6  1  0  0  0  0
  5 41  1  0  0  0  0
  5 42  1  0  0  0  0
  6  7  1  0  0  0  0
  6 43  1  0  0  0  0
  6 44  1  0  0  0  0
  7  8  1  0  0  0  0
  7 45  1  0  0  0  0
  7 46  1  0  0  0  0
  8  9  1  0  0  0  0
  8 47  1  0  0  0  0
  8 48  1  0  0  0  0
  9 10  1  0  0  0  0
  9 49  1  0  0  0  0
  9 50  1  0  0  0  0
 10 11  1  0  0  0  0
 10 51  1  0  0  0  0
 10 52  1  0  0  0  0
 11 12  1  0  0  0  0
 11 15  1  0  0  0  0
 12 13  2  0  0  0  0
 12 53  1  0  0  0  0
 13 14  1  0  0  0  0
 13 54  1  0  0  0  0
 14 15  2  0  0  0  0
 14 16  1  0  0  0  0
 15 55  1  0  0  0  0
 16 56  1  0  0  0  0
 16 57  1  0  0  0  0
 16 58  1  0  0  0  0
 17 18  1  0  0  0  0
 17 19  1  0  0  0  0
 17 20  1  0  0  0  0
 17 21  1  0  0  0  0
 21 22  2  0  0  0  0
 21 23  2  0  0  0  0
 21 24  1  0  0  0  0
 24 25  1  0  0  0  0
 25 26  2  0  0  0  0
 25 27  2  0  0  0  0
 25 28  1  0  0  0  0
 28 29  1  0  0  0  0
 28 30  1  0  0  0  0
 28 31  1  0  0  0  0
M  CHG  2  14   1  24  -1
M  END
$$$$

 OpenBabel05152416213D

 36 38  0  0  0  0  0  0  0  0999 V2000
    1.0628    0.0566    0.0248 C   0  0  0  0  0  0  0  0  0  0  0  0
    0.5654   -1.3706   -0.0090 C   0  0  0  0  0  0  0  0  0  0  0  0
    1.0669   -2.1368    1.1744 C   0  0  0  0  0  0  0  0  0  0  0  0
    1.0463   -3.5096    1.1640 C   0  0  0  0  0  0  0  0  0  0  0  0
    1.0475   -4.1476    2.3590 C   0  0  0  0  0  0  0  0  0  0  0  0
    1.2556   -3.5584    3.6019 C   0  0  0  0  0  0  0  0  0  0  0  0
    1.4983   -2.1692    3.5204 C   0  0  0  0  0  0  0  0  0  0  0  0
    1.3844   -1.4782    2.3426 C   0  0  0  0  0  0  0  0  0  0  0  0
    1.2831   -4.3848    4.8380 N   0  0  0  0  0  0  0  0  0  0  0  0
    2.0595   -3.6311    6.0951 C   0  0  0  0  0  0  0  0  0  0  0  0
    3.5159   -2.7079    6.0050 C   0  0  0  0  0  0  0  0  0  0  0  0
    4.7049   -3.4059    5.6799 C   0  0  0  0  0  0  0  0  0  0  0  0
    5.8712   -2.6197    5.5226 C   0  0  0  0  0  0  0  0  0  0  0  0
    5.7591   -1.2592    5.3831 C   0  0  0  0  0  0  0  0  0  0  0  0
    4.4184   -0.8989    5.3971 C   0  0  0  0  0  0  0  0  0  0  0  0
    3.3493   -2.4563    5.1689 C   0  0  0  0  0  0  0  0  0  0  0  0
    2.2271   -4.7128    4.5238 C   0  0  0  0  0  0  0  0  0  0  0  0
    1.7299   -6.0610    3.9660 O   0  0  0  0  0  0  0  0  0  0  0  0
   -0.9738   -1.3735   -0.0067 C   0  0  0  0  0  0  0  0  0  0  0  0
   -1.5798   -1.8739   -0.9561 O   0  0  0  0  0  0  0  0  0  0  0  0
   -1.6683   -0.8171    1.0431 O   0  0  0  0  0  0  0  0  0  0  0  0
    0.6917    0.5626    0.9177 H   0  0  0  0  0  0  0  0  0  0  0  0
    0.7067    0.6057   -0.8296 H   0  0  0  0  0  0  0  0  0  0  0  0
    2.1554    0.0613    0.0399 H   0  0  0  0  0  0  0  0  0  0  0  0
    0.9289   -1.8493   -0.9177 H   0  0  0  0  0  0  0  0  0  0  0  0
    0.9625   -4.0758    0.2486 H   0  0  0  0  0  0  0  0  0  0  0  0
    0.7658   -5.1374    2.4108 H   0  0  0  0  0  0  0  0  0  0  0  0
    1.6341   -1.5814    4.3842 H   0  0  0  0  0  0  0  0  0  0  0  0
    1.4997   -0.4287    2.3448 H   0  0  0  0  0  0  0  0  0  0  0  0
    1.3696   -2.8865    6.3385 H   0  0  0  0  0  0  0  0  0  0  0  0
    2.3833   -4.3059    6.8243 H   0  0  0  0  0  0  0  0  0  0  0  0
    4.7154   -4.4718    5.3512 H   0  0  0  0  0  0  0  0  0  0  0  0
    6.7809   -3.0647    5.5932 H   0  0  0  0  0  0  0  0  0  0  0  0
    6.6348   -0.6677    5.2291 H   0  0  0  0  0  0  0  0  0  0  0  0
    4.4082    0.3334    5.5828 H   0  0  0  0  0  0  0  0  0  0  0  0
   -2.6468   -0.7994    1.0756 H   0  0  0  0  0  0  0  0  0  0  0  0
  1  2  1  0  0  0  0
  1 22  1  0  0  0  0
  1 23  1  0  0  0  0
  1 24  1  0  0  0  0
  2  3  1  0  0  0  0
  2 19  1  0  0  0  0
  2 25  1  0  0  0  0
  3  4  2  0  0  0  0
  3  8  1  0  0  0  0
  4  5  1  0  0  0  0
  4 26  1  0  0  0  0
  5  6  2  0  0  0  0
  5 27  1  0  0  0  0
  6  7  1  0  0  0  0
  6  9  1  0  0  0  0
  7  8  2  0  0  0  0
  7 28  1  0  0  0  0
  8 29  1  0  0  0  0
  9 10  1  0  0  0  0
  9 17  1  0  0  0  0
 10 11  1  0  0  0  0
 10 30  1  0  0  0  0
 10 31  1  0  0  0  0
 11 12  2  0  0  0  0
 11 16  1  0  0  0  0
 12 13  1  0  0  0  0
 12 32  1  0  0  0  0
 13 14  2  0  0  0  0
 13 33  1  0  0  0  0
 14 15  1  0  0  0  0
 14 34  1  0  0  0  0
 15 16  2  0  0  0  0
 15 35  1  0  0  0  0
 16 17  1  0  0  0  0
 17 18  2  0  0  0  0
 19 20  2  0  0  0  0
 19 21  1  0  0  0  0
 21 36  1  0  0  0  0
M  END
$$$$

 OpenBabel05152416213D

 85 90  0  0  1  0  0  0  0  0999 V2000
   -0.0748    4.7000   -2.5762 C   0  0  0  0  0  0  0  0  0  0  0  0
   -0.1283    3.4211   -2.5722 C   0  0  1  0  0  0  0  0  0  0  0  0
   -2.1969    2.9358   -1.7194 C   0  0  1  0  0  0  0  0  0  0  0  0
   -3.2451    1.1191   -2.2154 C   0  0  2  0  0  0  0  0  0  0  0  0
   -2.6496    0.3509   -4.3256 C   0  0  2  0  0  0  0  0  0  0  0  0
    0.3907    0.4528   -4.2510 C   0  0  1  0  0  0  0  0  0  0  0  0
    0.9106    2.4779   -3.9955 O   0  0  0  0  0  0  0  0  0  0  0  0
    0.8515   -0.4369   -3.4448 O   0  0  0  0  0  0  0  0  0  0  0  0
   -0.5068   -0.7769   -3.1390 C   0  0  1  0  0  0  0  0  0  0  0  0
   -2.6241   -1.9384   -4.9703 C   0  0  0  0  0  0  0  0  0  0  0  0
   -3.6503   -1.8918   -4.3832 C   0  0  2  0  0  0  0  0  0  0  0  0
   -2.0145   -2.1296   -4.0171 C   0  0  2  0  0  0  0  0  0  0  0  0
   -0.5151   -1.5080   -5.4026 C   0  0  2  0  0  0  0  0  0  0  0  0
   -0.8552    0.2635   -6.0874 C   0  0  1  0  0  0  0  0  0  0  0  0
   -1.0851    2.0007   -4.6363 C   0  0  0  0  0  0  0  0  0  0  0  0
   -1.2092    1.5505   -3.2222 C   0  0  0  0  0  0  0  0  0  0  0  0
   -1.7516   -0.9092   -2.6449 C   0  0  2  0  0  0  0  0  0  0  0  0
   -0.5970   -1.1808   -1.7939 C   0  0  0  0  0  0  0  0  0  0  0  0
   -2.8186   -1.3781   -1.7199 O   0  0  0  0  0  0  0  0  0  0  0  0
    0.3285    0.4203   -6.7934 C   0  0  1  0  0  0  0  0  0  0  0  0
    1.9471    0.3320   -6.1790 C   0  0  0  0  0  0  0  0  0  0  0  0
    2.7223    0.6110   -7.2497 C   0  0  0  0  0  0  0  0  0  0  0  0
    1.6247    0.1841   -8.3878 C   0  0  1  0  0  0  0  0  0  0  0  0
    0.3041   -0.4787   -7.8696 C   0  0  1  0  0  0  0  0  0  0  0  0
    0.5330   -1.9588   -7.3010 C   0  0  0  0  0  0  0  0  0  0  0  0
   -0.4841   -2.4409   -6.3964 C   0  0  1  0  0  0  0  0  0  0  0  0
   -0.3545   -3.7392   -5.8202 O   0  0  0  0  0  0  0  0  0  0  0  0
   -1.0961   -0.3703   -8.6768 C   0  0  0  0  0  0  0  0  0  0  0  0
    1.3024    1.4730   -9.2028 C   0  0  0  0  0  0  0  0  0  0  0  0
    1.1202    1.6401  -10.4897 C   0  0  0  0  0  0  0  0  0  0  0  0
    1.0927    3.1012  -10.6527 C   0  0  0  0  0  0  0  0  0  0  0  0
    1.0313    3.7097  -11.6874 O   0  0  0  0  0  0  0  0  0  0  0  0
    1.2830    3.7586   -9.5402 O   0  0  0  0  0  0  0  0  0  0  0  0
    1.2776    2.8682   -8.5832 C   0  0  0  0  0  0  0  0  0  0  0  0
   -0.0889    1.6500   -6.9911 O   0  0  0  0  0  0  0  0  0  0  0  0
   -1.7759   -3.4280   -3.2403 C   0  0  0  0  0  0  0  0  0  0  0  0
   -0.4554   -3.6834   -2.8422 O   0  0  0  0  0  0  0  0  0  0  0  0
   -4.7816   -1.9261   -3.7359 O   0  0  0  0  0  0  0  0  0  0  0  0
   -3.3064    0.9474   -5.4155 O   0  0  0  0  0  0  0  0  0  0  0  0
   -4.4410    0.8950   -2.0997 O   0  0  0  0  0  0  0  0  0  0  0  0
   -2.0575    2.6041   -0.3744 O   0  0  0  0  0  0  0  0  0  0  0  0
   -0.9051    4.6682   -3.3135 H   0  0  0  0  0  0  0  0  0  0  0  0
   -0.3921    4.6233   -1.4945 H   0  0  0  0  0  0  0  0  0  0  0  0
    0.9634    4.5529   -2.8996 H   0  0  0  0  0  0  0  0  0  0  0  0
    0.5281    2.9664   -1.6852 H   0  0  0  0  0  0  0  0  0  0  0  0
   -2.9853    3.4183   -2.3512 H   0  0  0  0  0  0  0  0  0  0  0  0
   -2.5007    0.6047   -1.3186 H   0  0  0  0  0  0  0  0  0  0  0  0
   -2.0352   -0.0823   -4.5541 H   0  0  0  0  0  0  0  0  0  0  0  0
    0.7372    1.0816   -4.7493 H   0  0  0  0  0  0  0  0  0  0  0  0
   -0.0190   -0.0116   -2.1443 H   0  0  0  0  0  0  0  0  0  0  0  0
   -3.4302   -2.2327   -5.9953 H   0  0  0  0  0  0  0  0  0  0  0  0
   -2.9817   -1.8796   -6.1821 H   0  0  0  0  0  0  0  0  0  0  0  0
   -4.1578   -0.9644   -4.9100 H   0  0  0  0  0  0  0  0  0  0  0  0
    0.4065   -1.8142   -4.8995 H   0  0  0  0  0  0  0  0  0  0  0  0
   -1.7487    0.2546   -6.6162 H   0  0  0  0  0  0  0  0  0  0  0  0
   -1.2493    3.0075   -5.0764 H   0  0  0  0  0  0  0  0  0  0  0  0
    0.0535    1.5683   -2.8174 H   0  0  0  0  0  0  0  0  0  0  0  0
   -2.2175    2.2518   -3.7048 H   0  0  0  0  0  0  0  0  0  0  0  0
   -1.4606    1.3706   -2.6461 H   0  0  0  0  0  0  0  0  0  0  0  0
    0.0785   -1.9560   -1.7633 H   0  0  0  0  0  0  0  0  0  0  0  0
   -0.7474   -0.7932   -0.6865 H   0  0  0  0  0  0  0  0  0  0  0  0
   -3.7947   -1.2644   -1.9235 H   0  0  0  0  0  0  0  0  0  0  0  0
    2.3553    1.1638   -5.3624 H   0  0  0  0  0  0  0  0  0  0  0  0
    2.0776   -0.6063   -5.5570 H   0  0  0  0  0  0  0  0  0  0  0  0
    3.6382    0.6833   -6.5320 H   0  0  0  0  0  0  0  0  0  0  0  0
    3.3253   -0.2138   -7.2561 H   0  0  0  0  0  0  0  0  0  0  0  0
    2.1057   -0.6332   -8.8712 H   0  0  0  0  0  0  0  0  0  0  0  0
    0.4126   -2.6633   -8.0694 H   0  0  0  0  0  0  0  0  0  0  0  0
    1.4439   -2.0776   -6.7194 H   0  0  0  0  0  0  0  0  0  0  0  0
   -1.3302   -2.2744   -6.9402 H   0  0  0  0  0  0  0  0  0  0  0  0
   -1.2453   -4.1901   -5.7834 H   0  0  0  0  0  0  0  0  0  0  0  0
   -2.0713   -0.7096   -8.1841 H   0  0  0  0  0  0  0  0  0  0  0  0
   -1.3116    0.7132   -8.8672 H   0  0  0  0  0  0  0  0  0  0  0  0
   -1.1608   -1.1070   -9.4355 H   0  0  0  0  0  0  0  0  0  0  0  0
    1.0907    0.8829  -11.2573 H   0  0  0  0  0  0  0  0  0  0  0  0
    2.1289    2.9180   -7.8773 H   0  0  0  0  0  0  0  0  0  0  0  0
    0.2747    3.1990   -8.2122 H   0  0  0  0  0  0  0  0  0  0  0  0
    0.6848    2.0728   -6.6320 H   0  0  0  0  0  0  0  0  0  0  0  0
   -2.6038   -3.4663   -2.5311 H   0  0  0  0  0  0  0  0  0  0  0  0
   -2.0307   -3.9832   -4.0331 H   0  0  0  0  0  0  0  0  0  0  0  0
    0.1996   -3.1338   -3.3619 H   0  0  0  0  0  0  0  0  0  0  0  0
   -4.5017   -2.7041   -3.2982 H   0  0  0  0  0  0  0  0  0  0  0  0
   -3.1407    1.9037   -5.5678 H   0  0  0  0  0  0  0  0  0  0  0  0
   -4.3528    0.6721   -3.0518 H   0  0  0  0  0  0  0  0  0  0  0  0
   -1.3086    1.9149   -0.3907 H   0  0  0  0  0  0  0  0  0  0  0  0
  1  2  1  0  0  0  0
  1 42  1  0  0  0  0
  1 43  1  0  0  0  0
  1 44  1  0  0  0  0
  2  3  1  0  0  0  0
  2  7  1  0  0  0  0
  2 45  1  1  0  0  0
  3  4  1  0  0  0  0
  3 41  1  0  0  0  0
  3 46  1  6  0  0  0
  4  5  1  0  0  0  0
  4 40  1  0  0  0  0
  4 47  1  1  0  0  0
  5  6  1  0  0  0  0
  5 39  1  0  0  0  0
  5 48  1  6  0  0  0
  6  7  1  0  0  0  0
  6  8  1  0  0  0  0
  6 49  1  6  0  0  0
  9 10  1  0  0  0  0
  9 18  1  0  0  0  0
  9 50  1  1  0  0  0
  9  8  1  0  0  0  0
 10 11  1  0  0  0  0
 10 51  1  0  0  0  0
 10 52  1  0  0  0  0
 11 12  1  0  0  0  0
 11 38  1  0  0  0  0
 11 53  1  1  0  0  0
 12 13  1  0  0  0  0
 12 17  1  0  0  0  0
 12 36  1  6  0  0  0
 13 14  1  0  0  0  0
 13 26  1  0  0  0  0
 13 54  1  1  0  0  0
 14 15  1  0  0  0  0
 14 20  1  0  0  0  0
 14 55  1  6  0  0  0
 15 16  1  0  0  0  0
 15 56  1  0  0  0  0
 15 57  1  0  0  0  0
 16 17  1  0  0  0  0
 16 58  1  0  0  0  0
 16 59  1  0  0  0  0
 17 18  1  0  0  0  0
 17 19  1  1  0  0  0
 18 60  1  0  0  0  0
 18 61  1  0  0  0  0
 19 62  1  0  0  0  0
 20 21  1  0  0  0  0
 20 24  1  0  0  0  0
 20 35  1  6  0  0  0
 21 22  1  0  0  0  0
 21 63  1  0  0  0  0
 21 64  1  0  0  0  0
 22 23  1  0  0  0  0
 22 65  1  0  0  0  0
 22 66  1  0  0  0  0
 23 24  1  0  0  0  0
 23 29  1  0  0  0  0
 23 67  1  6  0  0  0
 24 25  1  0  0  0  0
 24 28  1  6  0  0  0
 25 26  1  0  0  0  0
 25 68  1  0  0  0  0
 25 69  1  0  0  0  0
 26 70  1  6  0  0  0
 26 27  1  0  0  0  0
 27 71  1  0  0  0  0
 28 72  1  0  0  0  0
 28 73  1  0  0  0  0
 28 74  1  0  0  0  0
 29 30  2  0  0  0  0
 29 34  1  0  0  0  0
 30 31  1  0  0  0  0
 30 75  1  0  0  0  0
 31 32  2  0  0  0  0
 31 33  1  0  0  0  0
 33 34  1  0  0  0  0
 34 76  1  0  0  0  0
 34 77  1  0  0  0  0
 35 78  1  0  0  0  0
 36 37  1  0  0  0  0
 36 79  1  0  0  0  0
 36 80  1  0  0  0  0
 37 81  1  0  0  0  0
 38 82  1  0  0  0  0
 39 83  1  0  0  0  0
 40 84  1  0  0  0  0
 41 85  1  0  0  0  0
M  END
$$$$

 OpenBabel05152416213D

 22 24  0  0  0  0  0  0  0  0999 V2000
   -2.8737   -1.5886    0.0006 C   0  0  0  0  0  0  0  0  0  0  0  0
   -1.4814   -1.6047    0.0002 C   0  0  0  0  0  0  0  0  0  0  0  0
   -0.7488   -0.3988   -0.0008 C   0  0  0  0  0  0  0  0  0  0  0  0
   -1.4816    0.8134   -0.0010 C   0  0  0  0  0  0  0  0  0  0  0  0
   -0.7839    2.1118   -0.0012 C   0  0  0  0  0  0  0  0  0  0  0  0
   -1.4220    3.1552   -0.0018 O   0  0  0  0  0  0  0  0  0  0  0  0
    0.6878    2.1419   -0.0001 C   0  0  0  0  0  0  0  0  0  0  0  0
    1.2819    3.2099    0.0004 O   0  0  0  0  0  0  0  0  0  0  0  0
    1.4377    0.8704   -0.0000 C   0  0  0  0  0  0  0  0  0  0  0  0
    0.7529   -0.3692   -0.0009 C   0  0  0  0  0  0  0  0  0  0  0  0
    1.5315   -1.5463   -0.0017 C   0  0  0  0  0  0  0  0  0  0  0  0
    2.9220   -1.4769   -0.0008 C   0  0  0  0  0  0  0  0  0  0  0  0
    3.5458   -0.2339    0.0006 C   0  0  0  0  0  0  0  0  0  0  0  0
    2.7993    0.9001    0.0008 N   0  0  0  0  0  0  0  0  0  0  0  0
   -2.8428    0.7905   -0.0008 N   0  0  0  0  0  0  0  0  0  0  0  0
   -3.5450   -0.3704   -0.0000 C   0  0  0  0  0  0  0  0  0  0  0  0
   -3.4266   -2.5189    0.0014 H   0  0  0  0  0  0  0  0  0  0  0  0
   -1.0057   -2.5708    0.0008 H   0  0  0  0  0  0  0  0  0  0  0  0
    1.0939   -2.5301   -0.0028 H   0  0  0  0  0  0  0  0  0  0  0  0
    3.5097   -2.3858   -0.0012 H   0  0  0  0  0  0  0  0  0  0  0  0
    4.6252   -0.1706    0.0015 H   0  0  0  0  0  0  0  0  0  0  0  0
   -4.6258   -0.3469    0.0002 H   0  0  0  0  0  0  0  0  0  0  0  0
  1  2  2  0  0  0  0
  1 16  1  0  0  0  0
  1 17  1  0  0  0  0
  2  3  1  0  0  0  0
  2 18  1  0  0  0  0
  3  4  2  0  0  0  0
  3 10  1  0  0  0  0
  4  5  1  0  0  0  0
  4 15  1  0  0  0  0
  5  6  2  0  0  0  0
  5  7  1  0  0  0  0
  7  8  2  0  0  0  0
  7  9  1  0  0  0  0
  9 10  2  0  0  0  0
  9 14  1  0  0  0  0
 10 11  1  0  0  0  0
 11 12  2  0  0  0  0
 11 19  1  0  0  0  0
 12 13  1  0  0  0  0
 12 20  1  0  0  0  0
 13 14  2  0  0  0  0
 13 21  1  0  0  0  0
 15 16  2  0  0  0  0
 16 22  1  0  0  0  0
M  END
$$$$

 OpenBabel05152416213D

 59 60  0  0  0  0  0  0  0  0999 V2000
    1.0655    0.1398    0.1617 C   0  0  0  0  0  0  0  0  0  0  0  0
    0.5779    0.2986    1.4947 N   0  0  0  0  0  0  0  0  0  0  0  0
   -0.3358    1.3841    1.8378 C   0  0  0  0  0  0  0  0  0  0  0  0
    1.0139   -0.6015    2.4758 C   0  0  0  0  0  0  0  0  0  0  0  0
    0.1044   -0.9681    3.4251 C   0  0  0  0  0  0  0  0  0  0  0  0
    0.4598   -1.7668    4.4392 C   0  0  0  0  0  0  0  0  0  0  0  0
    1.7832   -2.2118    4.6716 C   0  0  0  0  0  0  0  0  0  0  0  0
    2.7030   -1.9278    3.6271 C   0  0  0  0  0  0  0  0  0  0  0  0
    2.3166   -1.1499    2.5332 C   0  0  0  0  0  0  0  0  0  0  0  0
    2.1928   -3.0313    5.8908 C   0  0  0  0  0  0  0  0  0  0  0  0
    1.3479   -3.3448    6.9426 C   0  0  0  0  0  0  0  0  0  0  0  0
   -0.0148   -2.7968    7.1071 C   0  0  0  0  0  0  0  0  0  0  0  0
   -0.9735   -3.4315    7.7290 C   0  0  0  0  0  0  0  0  0  0  0  0
   -0.6813   -4.6534    8.4833 C   0  0  0  0  0  0  0  0  0  0  0  0
   -1.6343   -5.4027    8.9701 N   0  3  0  0  0  0  0  0  0  0  0  0
   -3.0573   -5.1924    8.6754 C   0  0  0  0  0  0  0  0  0  0  0  0
   -1.2987   -6.5144    9.8350 C   0  0  0  0  0  0  0  0  0  0  0  0
    0.7848   -4.8941    8.7616 C   0  0  0  0  0  0  0  0  0  0  0  0
    1.7333   -4.2678    8.0452 C   0  0  0  0  0  0  0  0  0  0  0  0
    3.5823   -3.5780    5.9397 C   0  0  0  0  0  0  0  0  0  0  0  0
    3.8016   -4.9542    6.0423 C   0  0  0  0  0  0  0  0  0  0  0  0
    5.0837   -5.4640    6.1864 C   0  0  0  0  0  0  0  0  0  0  0  0
    6.2142   -4.6127    6.2050 C   0  0  0  0  0  0  0  0  0  0  0  0
    5.9792   -3.2194    6.0903 C   0  0  0  0  0  0  0  0  0  0  0  0
    4.6843   -2.7127    5.9593 C   0  0  0  0  0  0  0  0  0  0  0  0
    7.5619   -5.1287    6.3107 N   0  0  0  0  0  0  0  0  0  0  0  0
    7.8742   -6.5515    6.4017 C   0  0  0  0  0  0  0  0  0  0  0  0
    8.6978   -4.2184    6.2597 C   0  0  0  0  0  0  0  0  0  0  0  0
    1.7219   -0.5068   -2.7175 Cl  0  5  0  0  0  0  0  0  0  0  0  0
    0.6613    0.9253   -0.4962 H   0  0  0  0  0  0  0  0  0  0  0  0
    0.7228   -0.8645   -0.1793 H   0  0  0  0  0  0  0  0  0  0  0  0
    2.1668    0.1986    0.1624 H   0  0  0  0  0  0  0  0  0  0  0  0
   -1.3222    1.0139    2.1878 H   0  0  0  0  0  0  0  0  0  0  0  0
    0.1302    1.9842    2.6518 H   0  0  0  0  0  0  0  0  0  0  0  0
   -0.5354    2.0488    0.9820 H   0  0  0  0  0  0  0  0  0  0  0  0
   -0.9274   -0.6523    3.3742 H   0  0  0  0  0  0  0  0  0  0  0  0
   -0.4171   -1.9707    4.9545 H   0  0  0  0  0  0  0  0  0  0  0  0
    3.7192   -2.2945    3.6377 H   0  0  0  0  0  0  0  0  0  0  0  0
    3.0591   -0.9449    1.7734 H   0  0  0  0  0  0  0  0  0  0  0  0
   -0.3053   -1.8229    6.8021 H   0  0  0  0  0  0  0  0  0  0  0  0
   -1.9350   -2.9447    7.7175 H   0  0  0  0  0  0  0  0  0  0  0  0
   -3.4697   -6.1031    8.1952 H   0  0  0  0  0  0  0  0  0  0  0  0
   -3.6067   -4.9652    9.6095 H   0  0  0  0  0  0  0  0  0  0  0  0
   -3.3031   -4.3932    7.9577 H   0  0  0  0  0  0  0  0  0  0  0  0
   -0.6401   -7.2268    9.2944 H   0  0  0  0  0  0  0  0  0  0  0  0
   -0.7784   -6.1268   10.7390 H   0  0  0  0  0  0  0  0  0  0  0  0
   -2.2093   -7.0501   10.1685 H   0  0  0  0  0  0  0  0  0  0  0  0
    1.1202   -5.5872    9.5208 H   0  0  0  0  0  0  0  0  0  0  0  0
    2.7720   -4.4884    8.2582 H   0  0  0  0  0  0  0  0  0  0  0  0
    2.9673   -5.6450    6.0249 H   0  0  0  0  0  0  0  0  0  0  0  0
    5.1317   -6.5302    6.2814 H   0  0  0  0  0  0  0  0  0  0  0  0
    6.7873   -2.5009    6.1087 H   0  0  0  0  0  0  0  0  0  0  0  0
    4.5377   -1.6409    5.8960 H   0  0  0  0  0  0  0  0  0  0  0  0
    8.4735   -6.8487    5.5169 H   0  0  0  0  0  0  0  0  0  0  0  0
    8.4485   -6.7545    7.3290 H   0  0  0  0  0  0  0  0  0  0  0  0
    7.0092   -7.2252    6.4224 H   0  0  0  0  0  0  0  0  0  0  0  0
    8.6780   -3.6528    5.3037 H   0  0  0  0  0  0  0  0  0  0  0  0
    8.6678   -3.5107    7.1154 H   0  0  0  0  0  0  0  0  0  0  0  0
    9.6632   -4.7674    6.3024 H   0  0  0  0  0  0  0  0  0  0  0  0
  1  2  1  0  0  0  0
  1 30  1  0  0  0  0
  1 31  1  0  0  0  0
  1 32  1  0  0  0  0
  2  3  1  0  0  0  0
  2  4  1  0  0  0  0
  3 33  1  0  0  0  0
  3 34  1  0  0  0  0
  3 35  1  0  0  0  0
  4  5  2  0  0  0  0
  4  9  1  0  0  0  0
  5  6  1  0  0  0  0
  5 36  1  0  0  0  0
  6  7  2  0  0  0  0
  6 37  1  0  0  0  0
  7  8  1  0  0  0  0
  7 10  1  0  0  0  0
  8  9  2  0  0  0  0
  8 38  1  0  0  0  0
  9 39  1  0  0  0  0
 10 11  2  0  0  0  0
 10 20  1  0  0  0  0
 11 12  1  0  0  0  0
 11 19  1  0  0  0  0
 12 13  2  0  0  0  0
 12 40  1  0  0  0  0
 13 14  1  0  0  0  0
 13 41  1  0  0  0  0
 14 15  2  0  0  0  0
 14 18  1  0  0  0  0
 15 16  1  0  0  0  0
 15 17  1  0  0  0  0
 16 42  1  0  0  0  0
 16 43  1  0  0  0  0
 16 44  1  0  0  0  0
 17 45  1  0  0  0  0
 17 46  1  0  0  0  0
 17 47  1  0  0  0  0
 18 19  2  0  0  0  0
 18 48  1  0  0  0  0
 19 49  1  0  0  0  0
 20 21  2  0  0  0  0
 20 25  1  0  0  0  0
 21 22  1  0  0  0  0
 21 50  1  0  0  0  0
 22 23  2  0  0  0  0
 22 51  1  0  0  0  0
 23 24  1  0  0  0  0
 23 26  1  0  0  0  0
 24 25  2  0  0  0  0
 24 52  1  0  0  0  0
 25 53  1  0  0  0  0
 26 27  1  0  0  0  0
 26 28  1  0  0  0  0
 27 54  1  0  0  0  0
 27 55  1  0  0  0  0
 27 56  1  0  0  0  0
 28 57  1  0  0  0  0
 28 58  1  0  0  0  0
 28 59  1  0  0  0  0
M  CHG  2  15   1  29  -1
M  END
$$$$

 OpenBabel05152416213D

 54 55  0  0  0  0  0  0  0  0999 V2000
    1.3916   -0.6472   -0.1287 C   0  0  0  0  0  0  0  0  0  0  0  0
    0.9493    0.7066   -0.5414 C   0  0  0  0  0  0  0  0  0  0  0  0
    1.2316    1.9367   -1.4628 N   0  3  0  0  0  0  0  0  0  0  0  0
    0.6300    1.3477   -2.6885 C   0  0  0  0  0  0  0  0  0  0  0  0
   -0.9637    1.3116   -2.6234 C   0  0  0  0  0  0  0  0  0  0  0  0
    0.7259    3.4884   -1.4352 C   0  0  0  0  0  0  0  0  0  0  0  0
    0.9600    4.5165   -0.2164 C   0  0  0  0  0  0  0  0  0  0  0  0
    2.6916    2.0466   -1.2988 C   0  0  0  0  0  0  0  0  0  0  0  0
    3.0954    2.6593    0.1490 C   0  0  0  0  0  0  0  0  0  0  0  0
    2.2476    2.5951    1.3690 O   0  0  0  0  0  0  0  0  0  0  0  0
    0.8595    2.3831    1.7757 C   0  0  0  0  0  0  0  0  0  0  0  0
    0.5331    2.2727    3.1018 C   0  0  0  0  0  0  0  0  0  0  0  0
   -0.7984    1.8935    3.4135 C   0  0  0  0  0  0  0  0  0  0  0  0
   -1.7336    1.5455    2.3967 C   0  0  0  0  0  0  0  0  0  0  0  0
   -1.4428    1.6652    1.1533 C   0  0  0  0  0  0  0  0  0  0  0  0
   -0.3025    2.2510    0.9306 C   0  0  0  0  0  0  0  0  0  0  0  0
   -3.1302    1.2902    2.4242 C   0  0  0  0  0  0  0  0  0  0  0  0
   -3.7144    1.6369    3.5028 C   0  0  0  0  0  0  0  0  0  0  0  0
   -5.1043    1.5108    3.6334 C   0  0  0  0  0  0  0  0  0  0  0  0
   -5.7520    2.4255    4.4395 C   0  0  0  0  0  0  0  0  0  0  0  0
   -7.0781    2.1984    4.7533 C   0  0  0  0  0  0  0  0  0  0  0  0
   -7.7484    1.0992    4.2084 C   0  0  0  0  0  0  0  0  0  0  0  0
   -7.0872    0.2148    3.3540 C   0  0  0  0  0  0  0  0  0  0  0  0
   -5.7573    0.4193    3.0609 C   0  0  0  0  0  0  0  0  0  0  0  0
    1.0027   -1.2910   -0.9172 H   0  0  0  0  0  0  0  0  0  0  0  0
    0.8329   -0.8308    0.8901 H   0  0  0  0  0  0  0  0  0  0  0  0
    2.4882   -0.6927    0.0759 H   0  0  0  0  0  0  0  0  0  0  0  0
   -0.1109    0.4200   -0.4835 H   0  0  0  0  0  0  0  0  0  0  0  0
    1.4393    0.9435    0.2961 H   0  0  0  0  0  0  0  0  0  0  0  0
    0.9526    1.8900   -3.5810 H   0  0  0  0  0  0  0  0  0  0  0  0
    0.9582    0.2852   -2.8164 H   0  0  0  0  0  0  0  0  0  0  0  0
   -1.4311    2.3080   -2.5746 H   0  0  0  0  0  0  0  0  0  0  0  0
   -1.3554    0.7764   -3.4877 H   0  0  0  0  0  0  0  0  0  0  0  0
   -1.4829    0.7551   -1.8142 H   0  0  0  0  0  0  0  0  0  0  0  0
    1.0195    4.0466   -2.3338 H   0  0  0  0  0  0  0  0  0  0  0  0
   -0.3807    3.6306   -1.4960 H   0  0  0  0  0  0  0  0  0  0  0  0
    1.9322    4.9149   -0.1268 H   0  0  0  0  0  0  0  0  0  0  0  0
    0.3908    5.4409   -0.2566 H   0  0  0  0  0  0  0  0  0  0  0  0
    0.6746    4.3515    0.8089 H   0  0  0  0  0  0  0  0  0  0  0  0
    3.1564    1.0376   -1.3763 H   0  0  0  0  0  0  0  0  0  0  0  0
    3.1363    2.6158   -2.1442 H   0  0  0  0  0  0  0  0  0  0  0  0
    4.2015    2.5229    0.2870 H   0  0  0  0  0  0  0  0  0  0  0  0
    3.3627    3.6868    0.0152 H   0  0  0  0  0  0  0  0  0  0  0  0
    1.2859    2.5335    3.8185 H   0  0  0  0  0  0  0  0  0  0  0  0
   -1.0785    1.8792    4.4212 H   0  0  0  0  0  0  0  0  0  0  0  0
   -2.1006    1.3748    0.3089 H   0  0  0  0  0  0  0  0  0  0  0  0
   -0.3965    2.3804   -0.0224 H   0  0  0  0  0  0  0  0  0  0  0  0
   -3.7349    1.0304    1.5224 H   0  0  0  0  0  0  0  0  0  0  0  0
   -3.1505    2.0406    4.3139 H   0  0  0  0  0  0  0  0  0  0  0  0
   -5.2164    3.2925    4.8236 H   0  0  0  0  0  0  0  0  0  0  0  0
   -7.5796    2.8584    5.4347 H   0  0  0  0  0  0  0  0  0  0  0  0
   -8.7787    0.9322    4.4542 H   0  0  0  0  0  0  0  0  0  0  0  0
   -7.5851   -0.6478    2.9491 H   0  0  0  0  0  0  0  0  0  0  0  0
   -5.2215   -0.2967    2.4427 H   0  0  0  0  0  0  0  0  0  0  0  0
  1  2  1  0  0  0  0
  1 25  1  0  0  0  0
  1 26  1  0  0  0  0
  1 27  1  0  0  0  0
  2  3  1  0  0  0  0
  2 28  1  0  0  0  0
  2 29  1  0  0  0  0
  3  4  1  0  0  0  0
  3  6  1  0  0  0  0
  3  8  1  0  0  0  0
  4  5  1  0  0  0  0
  4 30  1  0  0  0  0
  4 31  1  0  0  0  0
  5 32  1  0  0  0  0
  5 33  1  0  0  0  0
  5 34  1  0  0  0  0
  6  7  1  0  0  0  0
  6 35  1  0  0  0  0
  6 36  1  0  0  0  0
  7 37  1  0  0  0  0
  7 38  1  0  0  0  0
  7 39  1  0  0  0  0
  8  9  1  0  0  0  0
  8 40  1  0  0  0  0
  8 41  1  0  0  0  0
  9 10  1  0  0  0  0
  9 42  1  0  0  0  0
  9 43  1  0  0  0  0
 10 11  1  0  0  0  0
 11 12  2  0  0  0  0
 11 16  1  0  0  0  0
 12 13  1  0  0  0  0
 12 44  1  0  0  0  0
 13 14  2  0  0  0  0
 13 45  1  0  0  0  0
 14 15  1  0  0  0  0
 14 17  1  0  0  0  0
 15 16  2  0  0  0  0
 15 46  1  0  0  0  0
 16 47  1  0  0  0  0
 17 18  2  0  0  0  0
 17 48  1  0  0  0  0
 18 19  1  0  0  0  0
 18 49  1  0  0  0  0
 19 20  2  0  0  0  0
 19 24  1  0  0  0  0
 20 21  1  0  0  0  0
 20 50  1  0  0  0  0
 21 22  2  0  0  0  0
 21 51  1  0  0  0  0
 22 23  1  0  0  0  0
 22 52  1  0  0  0  0
 23 24  2  0  0  0  0
 23 53  1  0  0  0  0
 24 54  1  0  0  0  0
M  CHG  1   3   1
M  END
$$$$

 OpenBabel05152416213D

 38 39  0  0  0  0  0  0  0  0999 V2000
    1.0803   -0.2006   -0.3893 C   0  0  0  0  0  0  0  0  0  0  0  0
    0.3834   -1.5285   -0.3962 C   0  0  0  0  0  0  0  0  0  0  0  0
    0.8879   -2.4712    0.7358 C   0  0  0  0  0  0  0  0  0  0  0  0
   -1.0016   -1.3270   -0.2861 O   0  0  0  0  0  0  0  0  0  0  0  0
   -1.7022   -0.7917    0.7720 C   0  0  0  0  0  0  0  0  0  0  0  0
   -2.8054   -1.5076    1.3025 C   0  0  0  0  0  0  0  0  0  0  0  0
   -3.2720   -0.6999    2.7012 S   0  0  0  0  0  0  0  0  0  0  0  0
   -2.2626    0.5739    2.6220 C   0  0  0  0  0  0  0  0  0  0  0  0
   -1.4487    0.4472    1.5097 C   0  0  0  0  0  0  0  0  0  0  0  0
   -0.5460    1.5236    1.3124 C   0  0  0  0  0  0  0  0  0  0  0  0
   -0.3455    2.4994    2.2679 C   0  0  0  0  0  0  0  0  0  0  0  0
   -1.1961    2.5717    3.3761 C   0  0  0  0  0  0  0  0  0  0  0  0
   -2.2029    1.6264    3.5301 C   0  0  0  0  0  0  0  0  0  0  0  0
    0.7147    3.3213    2.0856 O   0  0  0  0  0  0  0  0  0  0  0  0
    1.0674    4.3285    2.9375 C   0  0  0  0  0  0  0  0  0  0  0  0
   -3.4106   -2.7972    0.7914 C   0  0  0  0  0  0  0  0  0  0  0  0
   -2.8366   -3.3707   -0.1272 O   0  0  0  0  0  0  0  0  0  0  0  0
   -4.5266   -3.4030    1.3209 N   0  0  0  0  0  0  0  0  0  0  0  0
   -5.3668   -2.8649    2.3482 C   0  0  0  0  0  0  0  0  0  0  0  0
   -5.8207   -3.5817    3.3841 N   0  0  0  0  0  0  0  0  0  0  0  0
   -6.4766   -2.6986    4.1356 N   0  0  0  0  0  0  0  0  0  0  0  0
   -6.4525   -1.5151    3.5603 N   0  0  0  0  0  0  0  0  0  0  0  0
   -5.7819   -1.5924    2.4160 N   0  5  0  0  0  0  0  0  0  0  0  0
    2.9728   -0.7696    1.2946 Na  0  3  0  0  0  0  0  0  0  0  0  0
    1.0784    0.0098    0.6842 H   0  0  0  0  0  0  0  0  0  0  0  0
    0.5107    0.4780   -1.0765 H   0  0  0  0  0  0  0  0  0  0  0  0
    2.1409   -0.0542   -0.6386 H   0  0  0  0  0  0  0  0  0  0  0  0
    0.6173   -1.9782   -1.3831 H   0  0  0  0  0  0  0  0  0  0  0  0
    0.6258   -2.0563    1.7379 H   0  0  0  0  0  0  0  0  0  0  0  0
    0.4219   -3.4708    0.6525 H   0  0  0  0  0  0  0  0  0  0  0  0
    1.9862   -2.6378    0.7143 H   0  0  0  0  0  0  0  0  0  0  0  0
    0.0860    1.7077    0.4884 H   0  0  0  0  0  0  0  0  0  0  0  0
   -1.0780    3.3514    4.1091 H   0  0  0  0  0  0  0  0  0  0  0  0
   -2.8847    1.6894    4.3638 H   0  0  0  0  0  0  0  0  0  0  0  0
    0.2520    5.0705    2.8983 H   0  0  0  0  0  0  0  0  0  0  0  0
    1.2071    3.9354    3.9708 H   0  0  0  0  0  0  0  0  0  0  0  0
    2.0191    4.7822    2.5965 H   0  0  0  0  0  0  0  0  0  0  0  0
   -4.7730   -4.3489    0.9910 H   0  0  0  0  0  0  0  0  0  0  0  0
  1  2  1  0  0  0  0
  1 25  1  0  0  0  0
  1 26  1  0  0  0  0
  1 27  1  0  0  0  0
  2  3  1  0  0  0  0
  2  4  1  0  0  0  0
  2 28  1  0  0  0  0
  3 29  1  0  0  0  0
  3 30  1  0  0  0  0
  3 31  1  0  0  0  0
  4  5  1  0  0  0  0
  5  6  2  0  0  0  0
  5  9  1  0  0  0  0
  6  7  1  0  0  0  0
  6 16  1  0  0  0  0
  7  8  1  0  0  0  0
  8  9  2  0  0  0  0
  8 13  1  0  0  0  0
  9 10  1  0  0  0  0
 10 11  2  0  0  0  0
 10 32  1  0  0  0  0
 11 12  1  0  0  0  0
 11 14  1  0  0  0  0
 12 13  2  0  0  0  0
 12 33  1  0  0  0  0
 13 34  1  0  0  0  0
 14 15  1  0  0  0  0
 15 35  1  0  0  0  0
 15 36  1  0  0  0  0
 15 37  1  0  0  0  0
 16 17  2  0  0  0  0
 16 18  1  0  0  0  0
 18 19  1  0  0  0  0
 18 38  1  0  0  0  0
 19 20  2  0  0  0  0
 19 23  1  0  0  0  0
 20 21  1  0  0  0  0
 21 22  2  0  0  0  0
 22 23  1  0  0  0  0
M  CHG  2  23  -1  24   1
M  END
$$$$

 OpenBabel05152416213D

 37 40  0  0  0  0  0  0  0  0999 V2000
    1.0653   -0.0280    0.1071 C   0  0  0  0  0  0  0  0  0  0  0  0
    0.6172    0.6972    1.3350 C   0  0  0  0  0  0  0  0  0  0  0  0
   -0.1550    0.2082    2.3656 C   0  0  0  0  0  0  0  0  0  0  0  0
   -0.2989    1.2467    3.2329 C   0  0  0  0  0  0  0  0  0  0  0  0
    0.3551    2.3300    2.7695 N   0  0  0  0  0  0  0  0  0  0  0  0
    0.8969    1.9907    1.6056 N   0  0  0  0  0  0  0  0  0  0  0  0
   -1.1097    1.2357    4.3829 N   0  0  0  0  0  0  0  0  0  0  0  0
   -2.4662    0.8807    4.1462 C   0  0  0  0  0  0  0  0  0  0  0  0
   -2.8262   -0.3253    3.4897 C   0  0  0  0  0  0  0  0  0  0  0  0
   -4.1994   -0.5533    3.3049 C   0  0  0  0  0  0  0  0  0  0  0  0
   -5.2024    0.3211    3.6621 C   0  0  0  0  0  0  0  0  0  0  0  0
   -4.8370    1.5135    4.2841 C   0  0  0  0  0  0  0  0  0  0  0  0
   -3.4826    1.7829    4.5420 C   0  0  0  0  0  0  0  0  0  0  0  0
   -6.5675   -0.0133    3.3770 N   0  3  0  0  0  0  0  0  0  0  0  0
   -6.8423   -1.0585    2.8457 O   0  0  0  0  0  0  0  0  0  0  0  0
   -7.5399    0.8088    3.6785 O   0  5  0  0  0  0  0  0  0  0  0  0
   -1.8239   -1.3819    3.0427 C   0  0  0  0  0  0  0  0  0  0  0  0
   -0.6633   -1.0997    2.5445 N   0  0  0  0  0  0  0  0  0  0  0  0
   -2.1496   -2.8141    3.3244 C   0  0  0  0  0  0  0  0  0  0  0  0
   -3.3061   -3.4189    2.8019 C   0  0  0  0  0  0  0  0  0  0  0  0
   -3.7608   -4.6363    3.2705 C   0  0  0  0  0  0  0  0  0  0  0  0
   -3.0001   -5.3527    4.1804 C   0  0  0  0  0  0  0  0  0  0  0  0
   -1.7731   -4.8449    4.6175 C   0  0  0  0  0  0  0  0  0  0  0  0
   -1.3540   -3.5647    4.2224 C   0  0  0  0  0  0  0  0  0  0  0  0
    0.1221   -2.9162    4.9362 Cl  0  0  0  0  0  0  0  0  0  0  0  0
    0.6733    0.4798   -0.8010 H   0  0  0  0  0  0  0  0  0  0  0  0
    0.6968   -1.0747    0.1150 H   0  0  0  0  0  0  0  0  0  0  0  0
    2.1730   -0.0310    0.0701 H   0  0  0  0  0  0  0  0  0  0  0  0
    1.4437    2.6444    1.0014 H   0  0  0  0  0  0  0  0  0  0  0  0
   -0.9075    1.9378    5.1089 H   0  0  0  0  0  0  0  0  0  0  0  0
   -4.5751   -1.3923    2.8444 H   0  0  0  0  0  0  0  0  0  0  0  0
   -5.5995    2.2258    4.5600 H   0  0  0  0  0  0  0  0  0  0  0  0
   -3.2235    2.7191    5.0187 H   0  0  0  0  0  0  0  0  0  0  0  0
   -3.8935   -2.9699    2.0283 H   0  0  0  0  0  0  0  0  0  0  0  0
   -4.7122   -5.0120    2.9170 H   0  0  0  0  0  0  0  0  0  0  0  0
   -3.3641   -6.3071    4.5285 H   0  0  0  0  0  0  0  0  0  0  0  0
   -1.1721   -5.4319    5.2969 H   0  0  0  0  0  0  0  0  0  0  0  0
  1  2  1  0  0  0  0
  1 26  1  0  0  0  0
  1 27  1  0  0  0  0
  1 28  1  0  0  0  0
  2  3  2  0  0  0  0
  2  6  1  0  0  0  0
  3  4  1  0  0  0  0
  3 18  1  0  0  0  0
  4  5  2  0  0  0  0
  4  7  1  0  0  0  0
  5  6  1  0  0  0  0
  6 29  1  0  0  0  0
  7  8  1  0  0  0  0
  7 30  1  0  0  0  0
  8  9  2  0  0  0  0
  8 13  1  0  0  0  0
  9 10  1  0  0  0  0
  9 17  1  0  0  0  0
 10 11  2  0  0  0  0
 10 31  1  0  0  0  0
 11 12  1  0  0  0  0
 11 14  1  0  0  0  0
 12 13  2  0  0  0  0
 12 32  1  0  0  0  0
 13 33  1  0  0  0  0
 14 15  2  0  0  0  0
 14 16  1  0  0  0  0
 17 18  2  0  0  0  0
 17 19  1  0  0  0  0
 19 20  2  0  0  0  0
 19 24  1  0  0  0  0
 20 21  1  0  0  0  0
 20 34  1  0  0  0  0
 21 22  2  0  0  0  0
 21 35  1  0  0  0  0
 22 23  1  0  0  0  0
 22 36  1  0  0  0  0
 23 24  2  0  0  0  0
 23 37  1  0  0  0  0
 24 25  1  0  0  0  0
M  CHG  2  14   1  16  -1
M  END
$$$$

 OpenBabel05152416213D

 49 50  0  0  0  0  0  0  0  0999 V2000
    0.6114   -0.5039    0.0901 C   0  0  0  0  0  0  0  0  0  0  0  0
    0.3083    0.4117    1.3235 C   0  0  0  0  0  0  0  0  0  0  0  0
    1.4564    0.3068    2.3107 C   0  0  0  0  0  0  0  0  0  0  0  0
    1.8529   -1.0018    2.6989 C   0  0  0  0  0  0  0  0  0  0  0  0
    2.8539   -1.2146    3.6253 C   0  0  0  0  0  0  0  0  0  0  0  0
    3.4724   -0.1356    4.2196 C   0  0  0  0  0  0  0  0  0  0  0  0
    3.1113    1.1688    3.8580 C   0  0  0  0  0  0  0  0  0  0  0  0
    2.1048    1.4316    2.8587 C   0  0  0  0  0  0  0  0  0  0  0  0
    1.6736    2.8542    2.4182 C   0  0  0  0  0  0  0  0  0  0  0  0
    2.3629    3.8944    2.9486 C   0  0  0  0  0  0  0  0  0  0  0  0
    2.2389    5.4120    2.8910 C   0  0  0  0  0  0  0  0  0  0  0  0
    1.5425    6.0068    4.1250 C   0  0  0  0  0  0  0  0  0  0  0  0
    2.4612    6.1311    5.2688 N   0  0  0  0  0  0  0  0  0  0  0  0
    1.8162    6.8700    6.3505 C   0  0  0  0  0  0  0  0  0  0  0  0
    2.9061    4.8311    5.7748 C   0  0  0  0  0  0  0  0  0  0  0  0
    0.5418    2.9948    1.4154 C   0  0  0  0  0  0  0  0  0  0  0  0
    0.0174    4.2408    0.9216 C   0  0  0  0  0  0  0  0  0  0  0  0
   -0.9498    4.3248   -0.0440 C   0  0  0  0  0  0  0  0  0  0  0  0
   -1.4900    3.1944   -0.5685 C   0  0  0  0  0  0  0  0  0  0  0  0
   -1.0646    1.9588   -0.1045 C   0  0  0  0  0  0  0  0  0  0  0  0
   -0.0466    1.8354    0.8751 C   0  0  0  0  0  0  0  0  0  0  0  0
   -0.9372   -0.0672    2.0858 C   0  0  0  0  0  0  0  0  0  0  0  0
    2.8171    1.5532   -0.8819 Cl  0  0  0  0  0  0  0  0  0  0  0  0
    0.2886   -0.0816   -0.8828 H   0  0  0  0  0  0  0  0  0  0  0  0
    0.2207   -1.5350    0.1906 H   0  0  0  0  0  0  0  0  0  0  0  0
    1.6851   -0.7117    0.0128 H   0  0  0  0  0  0  0  0  0  0  0  0
    1.3761   -1.8702    2.2705 H   0  0  0  0  0  0  0  0  0  0  0  0
    3.1326   -2.2284    3.8903 H   0  0  0  0  0  0  0  0  0  0  0  0
    4.2375   -0.3077    4.9685 H   0  0  0  0  0  0  0  0  0  0  0  0
    3.6548    1.9136    4.4121 H   0  0  0  0  0  0  0  0  0  0  0  0
    3.1972    3.6149    3.5003 H   0  0  0  0  0  0  0  0  0  0  0  0
    3.1959    5.8913    2.6279 H   0  0  0  0  0  0  0  0  0  0  0  0
    1.6839    5.8050    2.1152 H   0  0  0  0  0  0  0  0  0  0  0  0
    1.1981    7.0330    3.8442 H   0  0  0  0  0  0  0  0  0  0  0  0
    0.6082    5.4432    4.3813 H   0  0  0  0  0  0  0  0  0  0  0  0
    0.9216    6.3227    6.7224 H   0  0  0  0  0  0  0  0  0  0  0  0
    2.5498    7.0003    7.1722 H   0  0  0  0  0  0  0  0  0  0  0  0
    1.5240    7.8827    6.0008 H   0  0  0  0  0  0  0  0  0  0  0  0
    2.0511    4.1162    5.8727 H   0  0  0  0  0  0  0  0  0  0  0  0
    3.7256    4.4750    5.1517 H   0  0  0  0  0  0  0  0  0  0  0  0
    3.4615    4.9303    6.7188 H   0  0  0  0  0  0  0  0  0  0  0  0
    0.2424    5.2070    1.1700 H   0  0  0  0  0  0  0  0  0  0  0  0
   -1.2736    5.3071   -0.3813 H   0  0  0  0  0  0  0  0  0  0  0  0
   -2.2472    3.2793   -1.3264 H   0  0  0  0  0  0  0  0  0  0  0  0
   -1.5386    1.0959   -0.5307 H   0  0  0  0  0  0  0  0  0  0  0  0
   -1.8445   -0.0256    1.4575 H   0  0  0  0  0  0  0  0  0  0  0  0
   -0.8115   -1.1046    2.4502 H   0  0  0  0  0  0  0  0  0  0  0  0
   -1.0880    0.5960    2.9732 H   0  0  0  0  0  0  0  0  0  0  0  0
    3.3790    0.4577   -0.2597 H   0  0  0  0  0  0  0  0  0  0  0  0
  1  2  1  0  0  0  0
  1 24  1  0  0  0  0
  1 25  1  0  0  0  0
  1 26  1  0  0  0  0
  2  3  1  0  0  0  0
  2 21  1  0  0  0  0
  2 22  1  0  0  0  0
  3  4  2  0  0  0  0
  3  8  1  0  0  0  0
  4  5  1  0  0  0  0
  4 27  1  0  0  0  0
  5  6  2  0  0  0  0
  5 28  1  0  0  0  0
  6  7  1  0  0  0  0
  6 29  1  0  0  0  0
  7  8  2  0  0  0  0
  7 30  1  0  0  0  0
  8  9  1  0  0  0  0
  9 10  2  0  0  0  0
  9 16  1  0  0  0  0
 10 11  1  0  0  0  0
 10 31  1  0  0  0  0
 11 12  1  0  0  0  0
 11 32  1  0  0  0  0
 11 33  1  0  0  0  0
 12 13  1  0  0  0  0
 12 34  1  0  0  0  0
 12 35  1  0  0  0  0
 13 14  1  0  0  0  0
 13 15  1  0  0  0  0
 14 36  1  0  0  0  0
 14 37  1  0  0  0  0
 14 38  1  0  0  0  0
 15 39  1  0  0  0  0
 15 40  1  0  0  0  0
 15 41  1  0  0  0  0
 16 17  2  0  0  0  0
 16 21  1  0  0  0  0
 17 18  1  0  0  0  0
 17 42  1  0  0  0  0
 18 19  2  0  0  0  0
 18 43  1  0  0  0  0
 19 20  1  0  0  0  0
 19 44  1  0  0  0  0
 20 21  2  0  0  0  0
 20 45  1  0  0  0  0
 22 46  1  0  0  0  0
 22 47  1  0  0  0  0
 22 48  1  0  0  0  0
 23 49  1  0  0  0  0
M  END
$$$$

 OpenBabel05152416213D

 26 27  0  0  0  0  0  0  0  0999 V2000
   -0.4723    1.4873    0.0224 C   0  0  0  0  0  0  0  0  0  0  0  0
    0.9311    1.4137   -0.0235 C   0  0  0  0  0  0  0  0  0  0  0  0
    1.5484    0.1420   -0.0375 C   0  0  0  0  0  0  0  0  0  0  0  0
    0.7667   -1.0152   -0.0270 C   0  0  0  0  0  0  0  0  0  0  0  0
   -0.6320   -0.9404   -0.0077 C   0  0  0  0  0  0  0  0  0  0  0  0
   -1.2531    0.3244    0.0183 C   0  0  0  0  0  0  0  0  0  0  0  0
   -3.0054    0.4909    0.0385 Cl  0  0  0  0  0  0  0  0  0  0  0  0
   -1.3904   -2.1398   -0.0048 N   0  0  0  0  0  0  0  0  0  0  0  0
    3.3001   -0.0566    0.0110 Cl  0  0  0  0  0  0  0  0  0  0  0  0
    1.7297    2.6664   -0.0467 C   0  0  0  0  0  0  0  0  0  0  0  0
    1.5739    3.6067    0.9872 C   0  0  0  0  0  0  0  0  0  0  0  0
    2.3317    4.7845    1.0071 C   0  0  0  0  0  0  0  0  0  0  0  0
    3.2471    5.0503   -0.0310 C   0  0  0  0  0  0  0  0  0  0  0  0
    3.3841    4.1265   -1.0751 C   0  0  0  0  0  0  0  0  0  0  0  0
    2.6408    2.9443   -1.0912 C   0  0  0  0  0  0  0  0  0  0  0  0
    2.8313    1.8801   -2.4846 Cl  0  0  0  0  0  0  0  0  0  0  0  0
    4.0258    6.2364   -0.0481 N   0  0  0  0  0  0  0  0  0  0  0  0
    2.1132    5.8995    2.3517 Cl  0  0  0  0  0  0  0  0  0  0  0  0
   -0.9637    2.4534    0.0346 H   0  0  0  0  0  0  0  0  0  0  0  0
    1.2535   -1.9830   -0.0283 H   0  0  0  0  0  0  0  0  0  0  0  0
   -0.9185   -3.0564   -0.0170 H   0  0  0  0  0  0  0  0  0  0  0  0
   -2.4196   -2.1296    0.0129 H   0  0  0  0  0  0  0  0  0  0  0  0
    0.8794    3.4117    1.7962 H   0  0  0  0  0  0  0  0  0  0  0  0
    4.0715    4.3308   -1.8870 H   0  0  0  0  0  0  0  0  0  0  0  0
    4.6854    6.4173   -0.8196 H   0  0  0  0  0  0  0  0  0  0  0  0
    3.9531    6.9427    0.6972 H   0  0  0  0  0  0  0  0  0  0  0  0
  1  2  2  0  0  0  0
  1  6  1  0  0  0  0
  1 19  1  0  0  0  0
  2  3  1  0  0  0  0
  2 10  1  0  0  0  0
  3  4  2  0  0  0  0
  3  9  1  0  0  0  0
  4  5  1  0  0  0  0
  4 20  1  0  0  0  0
  5  6  2  0  0  0  0
  5  8  1  0  0  0  0
  6  7  1  0  0  0  0
  8 21  1  0  0  0  0
  8 22  1  0  0  0  0
 10 11  2  0  0  0  0
 10 15  1  0  0  0  0
 11 12  1  0  0  0  0
 11 23  1  0  0  0  0
 12 13  2  0  0  0  0
 12 18  1  0  0  0  0
 13 14  1  0  0  0  0
 13 17  1  0  0  0  0
 14 15  2  0  0  0  0
 14 24  1  0  0  0  0
 15 16  1  0  0  0  0
 17 25  1  0  0  0  0
 17 26  1  0  0  0  0
M  END
$$$$

 OpenBabel05152416213D

 40 43  0  0  0  0  0  0  0  0999 V2000
    2.5391    0.6816    0.0313 C   0  0  0  0  0  0  0  0  0  0  0  0
    2.5391   -0.7052    0.0168 C   0  0  0  0  0  0  0  0  0  0  0  0
    1.3395   -1.4057   -0.0262 C   0  0  0  0  0  0  0  0  0  0  0  0
    0.1027   -0.7258   -0.0463 C   0  0  0  0  0  0  0  0  0  0  0  0
    0.0994    0.7024   -0.0385 C   0  0  0  0  0  0  0  0  0  0  0  0
    1.3394    1.3833   -0.0025 C   0  0  0  0  0  0  0  0  0  0  0  0
   -1.1486    1.3770   -0.0636 C   0  0  0  0  0  0  0  0  0  0  0  0
   -2.2839    0.6387   -0.0486 N   0  0  0  0  0  0  0  0  0  0  0  0
   -2.2801   -0.6928   -0.0567 N   0  0  0  0  0  0  0  0  0  0  0  0
   -1.1350   -1.4138   -0.0761 C   0  0  0  0  0  0  0  0  0  0  0  0
   -1.2233   -2.8435   -0.0424 N   0  0  0  0  0  0  0  0  0  0  0  0
   -2.4730   -3.5122   -0.0264 C   0  0  0  0  0  0  0  0  0  0  0  0
   -3.4474   -3.2571   -1.0045 C   0  0  0  0  0  0  0  0  0  0  0  0
   -4.6691   -3.9346   -0.9681 C   0  0  0  0  0  0  0  0  0  0  0  0
   -4.9342   -4.8470    0.0597 C   0  0  0  0  0  0  0  0  0  0  0  0
   -3.9669   -5.0974    1.0391 C   0  0  0  0  0  0  0  0  0  0  0  0
   -2.7337   -4.4452    0.9854 C   0  0  0  0  0  0  0  0  0  0  0  0
   -6.4779   -5.6752    0.1206 Cl  0  0  0  0  0  0  0  0  0  0  0  0
   -1.3135    2.8878   -0.1205 C   0  0  0  0  0  0  0  0  0  0  0  0
   -2.0873    3.3040   -1.3518 C   0  0  0  0  0  0  0  0  0  0  0  0
   -3.4236    2.9059   -1.5284 C   0  0  0  0  0  0  0  0  0  0  0  0
   -4.1225    3.3077   -2.6648 C   0  0  0  0  0  0  0  0  0  0  0  0
   -3.5173    4.0885   -3.5971 N   0  0  0  0  0  0  0  0  0  0  0  0
   -2.2281    4.4952   -3.4562 C   0  0  0  0  0  0  0  0  0  0  0  0
   -1.4885    4.1108   -2.3345 C   0  0  0  0  0  0  0  0  0  0  0  0
    3.4761    1.2204    0.0692 H   0  0  0  0  0  0  0  0  0  0  0  0
    3.4755   -1.2447    0.0403 H   0  0  0  0  0  0  0  0  0  0  0  0
    1.4188   -2.4783   -0.0412 H   0  0  0  0  0  0  0  0  0  0  0  0
    1.4309    2.4541    0.0133 H   0  0  0  0  0  0  0  0  0  0  0  0
   -0.4023   -3.4114    0.1879 H   0  0  0  0  0  0  0  0  0  0  0  0
   -3.2486   -2.5564   -1.8063 H   0  0  0  0  0  0  0  0  0  0  0  0
   -5.4081   -3.7480   -1.7363 H   0  0  0  0  0  0  0  0  0  0  0  0
   -4.1679   -5.7942    1.8425 H   0  0  0  0  0  0  0  0  0  0  0  0
   -1.9907   -4.6357    1.7505 H   0  0  0  0  0  0  0  0  0  0  0  0
   -1.8516    3.2394    0.7839 H   0  0  0  0  0  0  0  0  0  0  0  0
   -0.3526    3.4211   -0.1290 H   0  0  0  0  0  0  0  0  0  0  0  0
   -3.9303    2.2953   -0.7946 H   0  0  0  0  0  0  0  0  0  0  0  0
   -5.1505    3.0003   -2.7993 H   0  0  0  0  0  0  0  0  0  0  0  0
   -1.7772    5.1199   -4.2152 H   0  0  0  0  0  0  0  0  0  0  0  0
   -0.4613    4.4407   -2.2370 H   0  0  0  0  0  0  0  0  0  0  0  0
  1  2  2  0  0  0  0
  1  6  1  0  0  0  0
  1 26  1  0  0  0  0
  2  3  1  0  0  0  0
  2 27  1  0  0  0  0
  3  4  2  0  0  0  0
  3 28  1  0  0  0  0
  4  5  1  0  0  0  0
  4 10  1  0  0  0  0
  5  6  2  0  0  0  0
  5  7  1  0  0  0  0
  6 29  1  0  0  0  0
  7  8  2  0  0  0  0
  7 19  1  0  0  0  0
  8  9  1  0  0  0  0
  9 10  2  0  0  0  0
 10 11  1  0  0  0  0
 11 12  1  0  0  0  0
 11 30  1  0  0  0  0
 12 13  2  0  0  0  0
 12 17  1  0  0  0  0
 13 14  1  0  0  0  0
 13 31  1  0  0  0  0
 14 15  2  0  0  0  0
 14 32  1  0  0  0  0
 15 16  1  0  0  0  0
 15 18  1  0  0  0  0
 16 17  2  0  0  0  0
 16 33  1  0  0  0  0
 17 34  1  0  0  0  0
 19 20  1  0  0  0  0
 19 35  1  0  0  0  0
 19 36  1  0  0  0  0
 20 21  2  0  0  0  0
 20 25  1  0  0  0  0
 21 22  1  0  0  0  0
 21 37  1  0  0  0  0
 22 23  2  0  0  0  0
 22 38  1  0  0  0  0
 23 24  1  0  0  0  0
 24 25  2  0  0  0  0
 24 39  1  0  0  0  0
 25 40  1  0  0  0  0
M  END
$$$$

 OpenBabel05152416213D

 56 59  0  0  1  0  0  0  0  0999 V2000
    0.8805    0.4146   -0.5147 C   0  0  0  0  0  0  0  0  0  0  0  0
    0.7419    0.3718    0.8836 C   0  0  0  0  0  0  0  0  0  0  0  0
    1.4647    1.7693    2.1147 C   0  0  2  0  0  0  0  0  0  0  0  0
    0.7250    1.9879    3.6821 C   0  0  0  0  0  0  0  0  0  0  0  0
    0.1637    0.6217    4.3933 C   0  0  0  0  0  0  0  0  0  0  0  0
    0.2130   -0.7520    3.7693 C   0  0  0  0  0  0  0  0  0  0  0  0
    0.8447   -0.0232    2.9895 O   0  0  0  0  0  0  0  0  0  0  0  0
    0.5712    1.4204    2.0614 C   0  0  0  0  0  0  0  0  0  0  0  0
   -0.1011    2.3302    1.3943 O   0  0  0  0  0  0  0  0  0  0  0  0
   -0.3105    0.6507    5.6071 C   0  0  0  0  0  0  0  0  0  0  0  0
   -0.5830   -0.3736    6.2307 O   0  0  0  0  0  0  0  0  0  0  0  0
   -0.3917    1.8822    6.1234 N   0  0  0  0  0  0  0  0  0  0  0  0
   -0.8191    2.1936    7.4500 C   0  0  0  0  0  0  0  0  0  0  0  0
   -0.7296    3.6701    7.4114 C   0  0  0  0  0  0  0  0  0  0  0  0
   -1.0251    4.5356    8.3953 C   0  0  0  0  0  0  0  0  0  0  0  0
   -0.8813    5.9118    8.1689 C   0  0  0  0  0  0  0  0  0  0  0  0
   -0.4041    6.3483    6.8983 C   0  0  0  0  0  0  0  0  0  0  0  0
   -0.2404    7.7066    6.6540 C   0  0  0  0  0  0  0  0  0  0  0  0
   -0.5436    8.6320    7.6538 C   0  0  0  0  0  0  0  0  0  0  0  0
   -1.0153    8.2165    8.9045 C   0  0  0  0  0  0  0  0  0  0  0  0
   -1.1906    6.8491    9.1666 C   0  0  0  0  0  0  0  0  0  0  0  0
   -1.6669    6.4264   10.5378 C   0  0  0  0  0  0  0  0  0  0  0  0
   -0.7173    6.8615   11.5693 N   0  0  0  0  0  0  0  0  0  0  0  0
   -1.2109    6.4301   12.8787 C   0  0  0  0  0  0  0  0  0  0  0  0
    0.6066    6.2731   11.3266 C   0  0  0  0  0  0  0  0  0  0  0  0
   -1.2902    9.1431    9.8504 O   0  0  0  0  0  0  0  0  0  0  0  0
   -0.1132    5.4375    5.9309 N   0  0  0  0  0  0  0  0  0  0  0  0
   -0.2992    4.1326    6.2229 C   0  0  0  0  0  0  0  0  0  0  0  0
   -0.0817    3.0367    5.4445 C   0  0  0  0  0  0  0  0  0  0  0  0
    0.4368    3.1205    4.2023 C   0  0  0  0  0  0  0  0  0  0  0  0
    2.7716    1.4732    2.1717 O   0  0  0  0  0  0  0  0  0  0  0  0
    2.1935   -2.1661   -0.0930 Cl  0  0  0  0  0  0  0  0  0  0  0  0
    0.3598    1.2188   -0.9041 H   0  0  0  0  0  0  0  0  0  0  0  0
    0.4569   -0.4953   -1.0183 H   0  0  0  0  0  0  0  0  0  0  0  0
    1.9072    0.7193   -0.5574 H   0  0  0  0  0  0  0  0  0  0  0  0
   -0.5135   -0.0378    1.1406 H   0  0  0  0  0  0  0  0  0  0  0  0
    1.2466   -0.5650    1.1703 H   0  0  0  0  0  0  0  0  0  0  0  0
   -0.7625   -1.2467    3.4597 H   0  0  0  0  0  0  0  0  0  0  0  0
    0.5387   -1.5765    3.0873 H   0  0  0  0  0  0  0  0  0  0  0  0
   -1.8518    1.8494    7.6183 H   0  0  0  0  0  0  0  0  0  0  0  0
   -0.1289    1.7647    8.2004 H   0  0  0  0  0  0  0  0  0  0  0  0
   -1.3593    4.0854    9.2889 H   0  0  0  0  0  0  0  0  0  0  0  0
    0.1200    8.0494    5.6933 H   0  0  0  0  0  0  0  0  0  0  0  0
   -0.4096    9.6811    7.4531 H   0  0  0  0  0  0  0  0  0  0  0  0
   -2.6710    6.8567   10.7036 H   0  0  0  0  0  0  0  0  0  0  0  0
   -1.8160    5.3605   10.6697 H   0  0  0  0  0  0  0  0  0  0  0  0
   -1.2903    5.3212   12.9221 H   0  0  0  0  0  0  0  0  0  0  0  0
   -0.5197    6.7747   13.6696 H   0  0  0  0  0  0  0  0  0  0  0  0
   -2.2123    6.8676   13.0698 H   0  0  0  0  0  0  0  0  0  0  0  0
    0.5503    5.1645   11.3338 H   0  0  0  0  0  0  0  0  0  0  0  0
    1.0030    6.6006   10.3431 H   0  0  0  0  0  0  0  0  0  0  0  0
    1.3173    6.6223   12.0965 H   0  0  0  0  0  0  0  0  0  0  0  0
   -1.6261    8.9234   10.7327 H   0  0  0  0  0  0  0  0  0  0  0  0
    0.6940    3.9429    3.5839 H   0  0  0  0  0  0  0  0  0  0  0  0
    3.1146    2.3541    2.4673 H   0  0  0  0  0  0  0  0  0  0  0  0
    2.8989   -0.9413    0.2366 H   0  0  0  0  0  0  0  0  0  0  0  0
  1  2  1  0  0  0  0
  1 33  1  0  0  0  0
  1 34  1  0  0  0  0
  1 35  1  0  0  0  0
  2  3  1  0  0  0  0
  2 36  1  0  0  0  0
  2 37  1  0  0  0  0
  3  4  1  0  0  0  0
  3  8  1  0  0  0  0
  3 31  1  6  0  0  0
  4  5  2  0  0  0  0
  4 30  1  0  0  0  0
  5  6  1  0  0  0  0
  5 10  1  0  0  0  0
  6  7  1  0  0  0  0
  6 38  1  0  0  0  0
  6 39  1  0  0  0  0
  7  8  1  0  0  0  0
  8  9  2  0  0  0  0
 10 11  2  0  0  0  0
 10 12  1  0  0  0  0
 12 13  1  0  0  0  0
 12 29  1  0  0  0  0
 13 14  1  0  0  0  0
 13 40  1  0  0  0  0
 13 41  1  0  0  0  0
 14 15  2  0  0  0  0
 14 28  1  0  0  0  0
 15 16  1  0  0  0  0
 15 42  1  0  0  0  0
 16 17  2  0  0  0  0
 16 21  1  0  0  0  0
 17 18  1  0  0  0  0
 17 27  1  0  0  0  0
 18 19  2  0  0  0  0
 18 43  1  0  0  0  0
 19 20  1  0  0  0  0
 19 44  1  0  0  0  0
 20 21  2  0  0  0  0
 20 26  1  0  0  0  0
 21 22  1  0  0  0  0
 22 23  1  0  0  0  0
 22 45  1  0  0  0  0
 22 46  1  0  0  0  0
 23 24  1  0  0  0  0
 23 25  1  0  0  0  0
 24 47  1  0  0  0  0
 24 48  1  0  0  0  0
 24 49  1  0  0  0  0
 25 50  1  0  0  0  0
 25 51  1  0  0  0  0
 25 52  1  0  0  0  0
 26 53  1  0  0  0  0
 27 28  2  0  0  0  0
 28 29  1  0  0  0  0
 29 30  2  0  0  0  0
 30 54  1  0  0  0  0
 31 55  1  0  0  0  0
 32 56  1  0  0  0  0
M  END
$$$$

 OpenBabel05152416213D

 88 91  0  0  1  0  0  0  0  0999 V2000
   -2.5647    0.7957   -1.6735 C   0  0  0  0  0  0  0  0  0  0  0  0
   -2.6677    0.5672   -0.1446 C   0  0  2  0  0  0  0  0  0  0  0  0
   -1.9807    1.7190    0.6258 C   0  0  0  0  0  0  0  0  0  0  0  0
   -0.4686    1.7514    0.3391 C   0  0  0  0  0  0  0  0  0  0  0  0
    0.2071    0.4181    0.6388 C   0  0  1  0  0  0  0  0  0  0  0  0
   -0.5404   -0.7867   -0.0424 C   0  0  2  0  0  0  0  0  0  0  0  0
   -2.0347   -0.7355    0.3181 C   0  0  2  0  0  0  0  0  0  0  0  0
   -2.9613   -1.8312   -0.2060 C   0  0  0  0  0  0  0  0  0  0  0  0
   -4.3648   -1.1967   -0.0654 C   0  0  0  0  0  0  0  0  0  0  0  0
   -4.1233    0.3002    0.2713 C   0  0  2  0  0  0  0  0  0  0  0  0
   -5.0738    1.1854   -0.2671 O   0  0  0  0  0  0  0  0  0  0  0  0
    0.1235   -2.0661    0.3948 C   0  0  1  0  0  0  0  0  0  0  0  0
    1.5581   -2.0251   -0.2665 C   0  0  0  0  0  0  0  0  0  0  0  0
    2.3321   -0.7541   -0.1375 C   0  0  0  0  0  0  0  0  0  0  0  0
    1.6885    0.4071    0.2863 C   0  0  0  0  0  0  0  0  0  0  0  0
    2.4960    1.5744    0.3787 C   0  0  0  0  0  0  0  0  0  0  0  0
    3.8353    1.5278    0.0733 C   0  0  0  0  0  0  0  0  0  0  0  0
    4.4957    0.3541   -0.2798 C   0  0  0  0  0  0  0  0  0  0  0  0
    3.7082   -0.8181   -0.3671 C   0  0  0  0  0  0  0  0  0  0  0  0
    5.7795    0.3018   -0.5427 O   0  0  0  0  0  0  0  0  0  0  0  0
    0.0064   -2.2161    1.9527 C   0  0  0  0  0  0  0  0  0  0  0  0
    0.3655   -3.5944    2.3775 C   0  0  0  0  0  0  0  0  0  0  0  0
    1.8308   -3.7615    1.9613 C   0  0  0  0  0  0  0  0  0  0  0  0
    2.8648   -2.5064    2.3658 C   0  0  0  0  0  0  0  0  0  0  0  0
    3.1182   -2.2720    3.8725 C   0  0  0  0  0  0  0  0  0  0  0  0
    3.7071   -3.5476    4.2623 C   0  0  0  0  0  0  0  0  0  0  0  0
    5.0626   -4.1415    3.9408 C   0  0  0  0  0  0  0  0  0  0  0  0
    6.0078   -3.3869    4.7369 C   0  0  0  0  0  0  0  0  0  0  0  0
    5.7714   -3.6556    6.2622 C   0  0  0  0  0  0  0  0  0  0  0  0
    6.2110   -5.4296    6.7964 S   0  0  0  0  0  0  0  0  0  0  0  0
    5.7660   -5.2799    8.2577 O   0  0  0  0  0  0  0  0  0  0  0  0
    4.8878   -6.7195    6.3709 C   0  0  0  0  0  0  0  0  0  0  0  0
    3.4291   -6.5951    6.9649 C   0  0  0  0  0  0  0  0  0  0  0  0
    2.6545   -5.4616    6.4525 C   0  0  0  0  0  0  0  0  0  0  0  0
    2.2474   -5.7452    4.9814 C   0  0  0  0  0  0  0  0  0  0  0  0
    1.4887   -6.7736    4.2340 C   0  0  0  0  0  0  0  0  0  0  0  0
    0.1588   -6.5799    4.4623 F   0  0  0  0  0  0  0  0  0  0  0  0
    1.7165   -6.6417    2.8542 F   0  0  0  0  0  0  0  0  0  0  0  0
    1.9701   -8.0109    4.5843 F   0  0  0  0  0  0  0  0  0  0  0  0
    1.4987   -4.6064    4.7154 F   0  0  0  0  0  0  0  0  0  0  0  0
    3.4000   -6.0765    4.3129 F   0  0  0  0  0  0  0  0  0  0  0  0
   -2.9810   -0.0556   -2.2404 H   0  0  0  0  0  0  0  0  0  0  0  0
   -3.1191    1.7143   -1.9413 H   0  0  0  0  0  0  0  0  0  0  0  0
   -1.5288    0.9392   -2.0200 H   0  0  0  0  0  0  0  0  0  0  0  0
   -2.1138    1.5590    1.7237 H   0  0  0  0  0  0  0  0  0  0  0  0
   -2.4212    2.6946    0.3576 H   0  0  0  0  0  0  0  0  0  0  0  0
   -0.0315    2.5253    1.0011 H   0  0  0  0  0  0  0  0  0  0  0  0
   -0.2546    2.0115   -0.7092 H   0  0  0  0  0  0  0  0  0  0  0  0
    0.1042    0.3438    1.7422 H   0  0  0  0  0  0  0  0  0  0  0  0
   -0.4353   -0.7453   -1.1477 H   0  0  0  0  0  0  0  0  0  0  0  0
   -2.1550   -0.7500    1.4152 H   0  0  0  0  0  0  0  0  0  0  0  0
   -2.7442   -2.0184   -1.2815 H   0  0  0  0  0  0  0  0  0  0  0  0
   -2.8543   -2.8049    0.3216 H   0  0  0  0  0  0  0  0  0  0  0  0
   -4.9094   -1.3324   -1.0220 H   0  0  0  0  0  0  0  0  0  0  0  0
   -4.9396   -1.6665    0.7608 H   0  0  0  0  0  0  0  0  0  0  0  0
   -4.1678    0.3868    1.3830 H   0  0  0  0  0  0  0  0  0  0  0  0
   -5.1148    1.0309   -1.2469 H   0  0  0  0  0  0  0  0  0  0  0  0
   -0.4141   -2.9475   -0.0256 H   0  0  0  0  0  0  0  0  0  0  0  0
    1.5171   -2.4005   -1.2950 H   0  0  0  0  0  0  0  0  0  0  0  0
    2.3371   -2.6739    0.0110 H   0  0  0  0  0  0  0  0  0  0  0  0
    2.0647    2.5057    0.6650 H   0  0  0  0  0  0  0  0  0  0  0  0
    4.4213    2.4457    0.1167 H   0  0  0  0  0  0  0  0  0  0  0  0
    4.2143   -1.7515   -0.6063 H   0  0  0  0  0  0  0  0  0  0  0  0
    6.3181    1.1263   -0.5479 H   0  0  0  0  0  0  0  0  0  0  0  0
    0.6108   -1.4886    2.5176 H   0  0  0  0  0  0  0  0  0  0  0  0
   -1.0022   -2.0742    2.3626 H   0  0  0  0  0  0  0  0  0  0  0  0
    0.0789   -3.6562    3.4386 H   0  0  0  0  0  0  0  0  0  0  0  0
   -0.2941   -4.3527    1.8847 H   0  0  0  0  0  0  0  0  0  0  0  0
    2.2880   -4.7445    2.0069 H   0  0  0  0  0  0  0  0  0  0  0  0
    1.7069   -4.1509    0.9337 H   0  0  0  0  0  0  0  0  0  0  0  0
    3.8423   -2.7670    1.9154 H   0  0  0  0  0  0  0  0  0  0  0  0
    2.6343   -1.4956    2.0591 H   0  0  0  0  0  0  0  0  0  0  0  0
    3.8071   -1.5357    4.3463 H   0  0  0  0  0  0  0  0  0  0  0  0
    2.1638   -2.0036    4.4352 H   0  0  0  0  0  0  0  0  0  0  0  0
    3.4303   -3.5096    5.2687 H   0  0  0  0  0  0  0  0  0  0  0  0
    3.2216   -4.2102    3.6720 H   0  0  0  0  0  0  0  0  0  0  0  0
    5.2976   -5.1732    4.2478 H   0  0  0  0  0  0  0  0  0  0  0  0
    5.1672   -4.2739    2.8431 H   0  0  0  0  0  0  0  0  0  0  0  0
    6.9938   -3.7351    4.4201 H   0  0  0  0  0  0  0  0  0  0  0  0
    5.8533   -2.3344    4.4285 H   0  0  0  0  0  0  0  0  0  0  0  0
    6.4704   -2.9678    6.7473 H   0  0  0  0  0  0  0  0  0  0  0  0
    4.8278   -3.2346    6.6705 H   0  0  0  0  0  0  0  0  0  0  0  0
    5.0040   -6.9843    5.3054 H   0  0  0  0  0  0  0  0  0  0  0  0
    5.2334   -7.6968    6.7335 H   0  0  0  0  0  0  0  0  0  0  0  0
    2.7828   -7.4558    6.7273 H   0  0  0  0  0  0  0  0  0  0  0  0
    3.4691   -6.4553    8.0500 H   0  0  0  0  0  0  0  0  0  0  0  0
    1.7642   -5.0754    6.9702 H   0  0  0  0  0  0  0  0  0  0  0  0
    3.3268   -4.6472    6.7817 H   0  0  0  0  0  0  0  0  0  0  0  0
  1 42  1  0  0  0  0
  1 43  1  0  0  0  0
  1 44  1  0  0  0  0
  2  1  1  6  0  0  0
  2  3  1  0  0  0  0
  2  7  1  0  0  0  0
  2 10  1  0  0  0  0
  3  4  1  0  0  0  0
  3 45  1  0  0  0  0
  3 46  1  0  0  0  0
  4  5  1  0  0  0  0
  4 47  1  0  0  0  0
  4 48  1  0  0  0  0
  5  6  1  0  0  0  0
  5 15  1  0  0  0  0
  5 49  1  1  0  0  0
  6  7  1  0  0  0  0
  6 12  1  0  0  0  0
  6 50  1  6  0  0  0
  7  8  1  0  0  0  0
  7 51  1  1  0  0  0
  8  9  1  0  0  0  0
  8 52  1  0  0  0  0
  8 53  1  0  0  0  0
  9 10  1  0  0  0  0
  9 54  1  0  0  0  0
  9 55  1  0  0  0  0
 10 11  1  0  0  0  0
 10 56  1  1  0  0  0
 11 57  1  0  0  0  0
 12 13  1  0  0  0  0
 12 58  1  6  0  0  0
 12 21  1  0  0  0  0
 13 14  1  0  0  0  0
 13 59  1  0  0  0  0
 13 60  1  0  0  0  0
 14 15  2  0  0  0  0
 14 19  1  0  0  0  0
 15 16  1  0  0  0  0
 16 17  2  0  0  0  0
 16 61  1  0  0  0  0
 17 18  1  0  0  0  0
 17 62  1  0  0  0  0
 18 19  2  0  0  0  0
 18 20  1  0  0  0  0
 19 63  1  0  0  0  0
 20 64  1  0  0  0  0
 21 22  1  0  0  0  0
 21 65  1  0  0  0  0
 21 66  1  0  0  0  0
 22 23  1  0  0  0  0
 22 67  1  0  0  0  0
 22 68  1  0  0  0  0
 23 24  1  0  0  0  0
 23 69  1  0  0  0  0
 23 70  1  0  0  0  0
 24 25  1  0  0  0  0
 24 71  1  0  0  0  0
 24 72  1  0  0  0  0
 25 26  1  0  0  0  0
 25 73  1  0  0  0  0
 25 74  1  0  0  0  0
 26 27  1  0  0  0  0
 26 75  1  0  0  0  0
 26 76  1  0  0  0  0
 27 28  1  0  0  0  0
 27 77  1  0  0  0  0
 27 78  1  0  0  0  0
 28 29  1  0  0  0  0
 28 79  1  0  0  0  0
 28 80  1  0  0  0  0
 29 30  1  0  0  0  0
 29 81  1  0  0  0  0
 29 82  1  0  0  0  0
 30 31  2  0  0  0  0
 30 32  1  0  0  0  0
 32 33  1  0  0  0  0
 32 83  1  0  0  0  0
 32 84  1  0  0  0  0
 33 34  1  0  0  0  0
 33 85  1  0  0  0  0
 33 86  1  0  0  0  0
 34 35  1  0  0  0  0
 34 87  1  0  0  0  0
 34 88  1  0  0  0  0
 35 36  1  0  0  0  0
 35 40  1  0  0  0  0
 35 41  1  0  0  0  0
 36 37  1  0  0  0  0
 36 38  1  0  0  0  0
 36 39  1  0  0  0  0
M  END
$$$$

 OpenBabel05152416213D

 50 52  0  0  0  0  0  0  0  0999 V2000
    0.6674   -1.3499   -0.0392 C   0  0  0  0  0  0  0  0  0  0  0  0
   -0.8619   -1.2702   -0.0772 C   0  0  0  0  0  0  0  0  0  0  0  0
   -1.3475   -0.0250    0.5753 N   0  0  0  0  0  0  0  0  0  0  0  0
   -0.7427    1.2225    0.1659 C   0  0  0  0  0  0  0  0  0  0  0  0
    0.7899    1.2395    0.0612 C   0  0  0  0  0  0  0  0  0  0  0  0
    1.3294   -0.0619   -0.4875 N   0  0  0  0  0  0  0  0  0  0  0  0
    1.5745   -0.0246   -1.9662 C   0  0  0  0  0  0  0  0  0  0  0  0
    0.3057    0.0732   -2.7746 C   0  0  0  0  0  0  0  0  0  0  0  0
   -0.3868    1.2886   -2.8292 C   0  0  0  0  0  0  0  0  0  0  0  0
   -1.6932    1.2478   -3.2016 C   0  0  0  0  0  0  0  0  0  0  0  0
   -2.3190    0.1257   -3.5925 C   0  0  0  0  0  0  0  0  0  0  0  0
   -1.6261   -1.0713   -3.7665 C   0  0  0  0  0  0  0  0  0  0  0  0
   -0.2741   -1.0883   -3.3536 C   0  0  0  0  0  0  0  0  0  0  0  0
   -3.6174    0.3996   -3.7153 O   0  0  0  0  0  0  0  0  0  0  0  0
   -3.7693    1.7444   -3.3371 C   0  0  0  0  0  0  0  0  0  0  0  0
   -2.5282    2.2606   -3.1326 O   0  0  0  0  0  0  0  0  0  0  0  0
   -2.5466    0.0056    1.2136 C   0  0  0  0  0  0  0  0  0  0  0  0
   -2.9972    1.1002    1.6039 O   0  0  0  0  0  0  0  0  0  0  0  0
   -3.4016   -1.1975    1.4522 C   0  0  0  0  0  0  0  0  0  0  0  0
   -3.8731   -1.8352    0.2951 O   0  0  0  0  0  0  0  0  0  0  0  0
   -4.7735   -1.3137   -0.5926 C   0  0  0  0  0  0  0  0  0  0  0  0
   -4.8616    0.0565   -0.8433 C   0  0  0  0  0  0  0  0  0  0  0  0
   -5.8482    0.5724   -1.6901 C   0  0  0  0  0  0  0  0  0  0  0  0
   -6.6271   -0.2529   -2.4454 C   0  0  0  0  0  0  0  0  0  0  0  0
   -6.5719   -1.6222   -2.2276 C   0  0  0  0  0  0  0  0  0  0  0  0
   -5.6812   -2.1550   -1.2695 C   0  0  0  0  0  0  0  0  0  0  0  0
   -7.5929    0.4866   -3.7115 Cl  0  0  0  0  0  0  0  0  0  0  0  0
    1.2208   -0.1108    2.8069 Cl  0  0  0  0  0  0  0  0  0  0  0  0
    0.9305   -1.7212    0.9653 H   0  0  0  0  0  0  0  0  0  0  0  0
    1.0790   -2.2235   -0.6007 H   0  0  0  0  0  0  0  0  0  0  0  0
   -1.3375   -2.1973    0.2979 H   0  0  0  0  0  0  0  0  0  0  0  0
   -1.1707   -1.2634   -1.1184 H   0  0  0  0  0  0  0  0  0  0  0  0
   -1.0875    1.2286   -0.7732 H   0  0  0  0  0  0  0  0  0  0  0  0
   -1.2320    2.1864    0.4579 H   0  0  0  0  0  0  0  0  0  0  0  0
    1.1961    1.6046    1.0224 H   0  0  0  0  0  0  0  0  0  0  0  0
    1.1956    2.0984   -0.5287 H   0  0  0  0  0  0  0  0  0  0  0  0
    2.2360    0.8230   -2.2292 H   0  0  0  0  0  0  0  0  0  0  0  0
    2.0899   -0.9653   -2.2354 H   0  0  0  0  0  0  0  0  0  0  0  0
   -0.0451    2.2237   -2.3950 H   0  0  0  0  0  0  0  0  0  0  0  0
   -2.1152   -1.9676   -4.1247 H   0  0  0  0  0  0  0  0  0  0  0  0
    0.2768   -2.0143   -3.3700 H   0  0  0  0  0  0  0  0  0  0  0  0
   -4.4294    2.3169   -4.0080 H   0  0  0  0  0  0  0  0  0  0  0  0
   -4.1052    1.8764   -2.3416 H   0  0  0  0  0  0  0  0  0  0  0  0
   -2.7712   -1.8880    2.0454 H   0  0  0  0  0  0  0  0  0  0  0  0
   -4.2838   -0.9214    2.0613 H   0  0  0  0  0  0  0  0  0  0  0  0
   -4.1619    0.7471   -0.4264 H   0  0  0  0  0  0  0  0  0  0  0  0
   -5.9733    1.6353   -1.8506 H   0  0  0  0  0  0  0  0  0  0  0  0
   -7.2278   -2.2498   -2.8037 H   0  0  0  0  0  0  0  0  0  0  0  0
   -5.6887   -3.2154   -1.0726 H   0  0  0  0  0  0  0  0  0  0  0  0
    2.2018   -0.1240    1.8027 H   0  0  0  0  0  0  0  0  0  0  0  0
  1  2  1  0  0  0  0
  1  6  1  0  0  0  0
  1 29  1  0  0  0  0
  1 30  1  0  0  0  0
  2  3  1  0  0  0  0
  2 31  1  0  0  0  0
  2 32  1  0  0  0  0
  3  4  1  0  0  0  0
  3 17  1  0  0  0  0
  4  5  1  0  0  0  0
  4 33  1  0  0  0  0
  4 34  1  0  0  0  0
  5  6  1  0  0  0  0
  5 35  1  0  0  0  0
  5 36  1  0  0  0  0
  6  7  1  0  0  0  0
  7  8  1  0  0  0  0
  7 37  1  0  0  0  0
  7 38  1  0  0  0  0
  8  9  2  0  0  0  0
  8 13  1  0  0  0  0
  9 10  1  0  0  0  0
  9 39  1  0  0  0  0
 10 11  2  0  0  0  0
 10 16  1  0  0  0  0
 11 12  1  0  0  0  0
 11 14  1  0  0  0  0
 12 13  2  0  0  0  0
 12 40  1  0  0  0  0
 13 41  1  0  0  0  0
 14 15  1  0  0  0  0
 15 16  1  0  0  0  0
 15 42  1  0  0  0  0
 15 43  1  0  0  0  0
 17 18  2  0  0  0  0
 17 19  1  0  0  0  0
 19 20  1  0  0  0  0
 19 44  1  0  0  0  0
 19 45  1  0  0  0  0
 20 21  1  0  0  0  0
 21 22  2  0  0  0  0
 21 26  1  0  0  0  0
 22 23  1  0  0  0  0
 22 46  1  0  0  0  0
 23 24  2  0  0  0  0
 23 47  1  0  0  0  0
 24 25  1  0  0  0  0
 24 27  1  0  0  0  0
 25 26  2  0  0  0  0
 25 48  1  0  0  0  0
 26 49  1  0  0  0  0
 28 50  1  0  0  0  0
M  END
$$$$

 OpenBabel05152416213D

 31 32  0  0  0  0  0  0  0  0999 V2000
    0.9174    0.0579   -0.0445 C   0  0  0  0  0  0  0  0  0  0  0  0
    0.4710   -0.5889    1.0908 O   0  0  0  0  0  0  0  0  0  0  0  0
    0.9119   -1.8292    1.4217 C   0  0  0  0  0  0  0  0  0  0  0  0
    1.6588   -2.4272    0.6593 O   0  0  0  0  0  0  0  0  0  0  0  0
    0.3972   -2.5444    2.6131 C   0  0  0  0  0  0  0  0  0  0  0  0
    1.1690   -3.4794    3.3576 C   0  0  0  0  0  0  0  0  0  0  0  0
    0.5190   -4.2541    4.3440 C   0  0  0  0  0  0  0  0  0  0  0  0
   -0.8368   -4.0735    4.6278 C   0  0  0  0  0  0  0  0  0  0  0  0
   -1.5700   -3.0962    3.9499 C   0  0  0  0  0  0  0  0  0  0  0  0
   -0.9343   -2.3311    2.9564 C   0  0  0  0  0  0  0  0  0  0  0  0
   -2.8745   -2.8965    4.2716 O   0  0  0  0  0  0  0  0  0  0  0  0
   -3.7067   -2.0601    3.6009 C   0  0  0  0  0  0  0  0  0  0  0  0
   -4.3609   -1.0513    4.3135 C   0  0  0  0  0  0  0  0  0  0  0  0
   -5.1755   -0.1359    3.6430 C   0  0  0  0  0  0  0  0  0  0  0  0
   -5.3220   -0.2077    2.2539 C   0  0  0  0  0  0  0  0  0  0  0  0
   -4.6752   -1.2162    1.5330 C   0  0  0  0  0  0  0  0  0  0  0  0
   -3.8829   -2.1517    2.2030 C   0  0  0  0  0  0  0  0  0  0  0  0
   -6.2882    0.9920    1.4176 Cl  0  0  0  0  0  0  0  0  0  0  0  0
   -4.0925   -0.8770    6.0410 Cl  0  0  0  0  0  0  0  0  0  0  0  0
    2.5905   -3.5949    3.1898 N   0  3  0  0  0  0  0  0  0  0  0  0
    3.2075   -4.3423    3.8924 O   0  0  0  0  0  0  0  0  0  0  0  0
    3.2678   -2.6831    2.5297 O   0  5  0  0  0  0  0  0  0  0  0  0
    0.5216    1.0915   -0.0746 H   0  0  0  0  0  0  0  0  0  0  0  0
    0.5795   -0.4947   -0.9471 H   0  0  0  0  0  0  0  0  0  0  0  0
    2.0303    0.1032   -0.0421 H   0  0  0  0  0  0  0  0  0  0  0  0
    1.0683   -4.9964    4.9101 H   0  0  0  0  0  0  0  0  0  0  0  0
   -1.3066   -4.6797    5.3949 H   0  0  0  0  0  0  0  0  0  0  0  0
   -1.4799   -1.5793    2.4104 H   0  0  0  0  0  0  0  0  0  0  0  0
   -5.6701    0.6478    4.1993 H   0  0  0  0  0  0  0  0  0  0  0  0
   -4.7723   -1.2653    0.4549 H   0  0  0  0  0  0  0  0  0  0  0  0
   -3.3757   -2.9214    1.6312 H   0  0  0  0  0  0  0  0  0  0  0  0
  1  2  1  0  0  0  0
  1 23  1  0  0  0  0
  1 24  1  0  0  0  0
  1 25  1  0  0  0  0
  2  3  1  0  0  0  0
  3  4  2  0  0  0  0
  3  5  1  0  0  0  0
  5  6  2  0  0  0  0
  5 10  1  0  0  0  0
  6  7  1  0  0  0  0
  6 20  1  0  0  0  0
  7  8  2  0  0  0  0
  7 26  1  0  0  0  0
  8  9  1  0  0  0  0
  8 27  1  0  0  0  0
  9 10  2  0  0  0  0
  9 11  1  0  0  0  0
 10 28  1  0  0  0  0
 11 12  1  0  0  0  0
 12 13  2  0  0  0  0
 12 17  1  0  0  0  0
 13 14  1  0  0  0  0
 13 19  1  0  0  0  0
 14 15  2  0  0  0  0
 14 29  1  0  0  0  0
 15 16  1  0  0  0  0
 15 18  1  0  0  0  0
 16 17  2  0  0  0  0
 16 30  1  0  0  0  0
 17 31  1  0  0  0  0
 20 21  2  0  0  0  0
 20 22  1  0  0  0  0
M  CHG  2  20   1  22  -1
M  END
$$$$

 OpenBabel05152416213D

 76 79  0  0  1  0  0  0  0  0999 V2000
   -6.3585    7.3700    0.3488 C   0  0  0  0  0  0  0  0  0  0  0  0
   -6.0231    7.9062   -1.0946 C   0  0  0  0  0  0  0  0  0  0  0  0
   -5.2108    9.3533   -0.9935 C   0  0  0  0  0  0  0  0  0  0  0  0
   -5.5697    7.1327   -2.3746 C   0  0  0  0  0  0  0  0  0  0  0  0
   -6.1797    7.2065   -3.6837 C   0  0  0  0  0  0  0  0  0  0  0  0
   -5.2479    6.4167   -4.5068 C   0  0  0  0  0  0  0  0  0  0  0  0
   -4.2159    5.9428   -3.7181 C   0  0  0  0  0  0  0  0  0  0  0  0
   -4.4086    6.3751   -2.4223 N   0  0  0  0  0  0  0  0  0  0  0  0
   -3.4431    6.2521   -1.2949 C   0  0  0  0  0  0  0  0  0  0  0  0
   -3.0583    4.7370   -0.6109 C   0  0  0  0  0  0  0  0  0  0  0  0
   -2.7131    3.6830   -1.4483 C   0  0  2  0  0  0  0  0  0  0  0  0
   -3.7693    2.5247   -1.6151 C   0  0  0  0  0  0  0  0  0  0  0  0
   -5.1896    3.2388   -1.8382 C   0  0  2  0  0  0  0  0  0  0  0  0
   -5.7716    4.0437   -0.5499 C   0  0  0  0  0  0  0  0  0  0  0  0
   -5.3903    4.8707    0.8396 C   0  0  0  0  0  0  0  0  0  0  0  0
   -6.1965    4.6916    1.7170 O   0  0  0  0  0  0  0  0  0  0  0  0
   -4.3492    5.7093    1.2947 O   0  0  0  0  0  0  0  0  0  0  0  0
   -6.1369    2.3107   -2.3404 O   0  0  0  0  0  0  0  0  0  0  0  0
   -1.3240    3.4754   -1.4210 O   0  0  0  0  0  0  0  0  0  0  0  0
   -2.9629    5.1543   -4.2437 C   0  0  0  0  0  0  0  0  0  0  0  0
   -2.9062    3.7237   -4.2272 C   0  0  0  0  0  0  0  0  0  0  0  0
   -1.6739    3.0659   -4.0318 C   0  0  0  0  0  0  0  0  0  0  0  0
   -0.4955    3.7520   -4.1746 C   0  0  0  0  0  0  0  0  0  0  0  0
   -0.5398    5.0977   -4.5482 C   0  0  0  0  0  0  0  0  0  0  0  0
   -1.7641    5.8114   -4.5162 C   0  0  0  0  0  0  0  0  0  0  0  0
    0.6751    3.1056   -3.9224 F   0  0  0  0  0  0  0  0  0  0  0  0
   -5.0976    6.0843   -5.9326 C   0  0  0  0  0  0  0  0  0  0  0  0
   -4.8819    7.0704   -6.8988 C   0  0  0  0  0  0  0  0  0  0  0  0
   -4.6349    6.6979   -8.2263 C   0  0  0  0  0  0  0  0  0  0  0  0
   -4.5625    5.3449   -8.5858 C   0  0  0  0  0  0  0  0  0  0  0  0
   -4.7000    4.3578   -7.6147 C   0  0  0  0  0  0  0  0  0  0  0  0
   -4.9673    4.7263   -6.3050 C   0  0  0  0  0  0  0  0  0  0  0  0
   -7.5067    7.8969   -4.3229 C   0  0  0  0  0  0  0  0  0  0  0  0
   -7.5797    7.7997   -5.4963 O   0  0  0  0  0  0  0  0  0  0  0  0
   -8.6419    8.5476   -3.6713 N   0  0  0  0  0  0  0  0  0  0  0  0
   -8.9000    8.9198   -2.3322 C   0  0  0  0  0  0  0  0  0  0  0  0
  -10.0700    8.6170   -1.5633 C   0  0  0  0  0  0  0  0  0  0  0  0
  -10.1045    8.8383   -0.1579 C   0  0  0  0  0  0  0  0  0  0  0  0
   -9.0087    9.3408    0.5015 C   0  0  0  0  0  0  0  0  0  0  0  0
   -7.9690    9.7763   -0.2459 C   0  0  0  0  0  0  0  0  0  0  0  0
   -7.9510    9.6417   -1.6651 C   0  0  0  0  0  0  0  0  0  0  0  0
   -5.4685    7.4977    0.9460 H   0  0  0  0  0  0  0  0  0  0  0  0
   -7.0339    6.4667    0.3498 H   0  0  0  0  0  0  0  0  0  0  0  0
   -6.9830    7.8897    1.1111 H   0  0  0  0  0  0  0  0  0  0  0  0
   -7.0669    7.6516   -1.3206 H   0  0  0  0  0  0  0  0  0  0  0  0
   -4.1387    9.2496   -0.8200 H   0  0  0  0  0  0  0  0  0  0  0  0
   -5.3048   10.0823   -1.8232 H   0  0  0  0  0  0  0  0  0  0  0  0
   -5.4065   10.1523   -0.2521 H   0  0  0  0  0  0  0  0  0  0  0  0
   -2.5213    6.7063   -1.6835 H   0  0  0  0  0  0  0  0  0  0  0  0
   -3.7351    7.0499   -0.6017 H   0  0  0  0  0  0  0  0  0  0  0  0
   -2.6509    4.5111    0.3868 H   0  0  0  0  0  0  0  0  0  0  0  0
   -3.5222    4.0355    0.0706 H   0  0  0  0  0  0  0  0  0  0  0  0
   -2.9357    4.2801   -2.1736 H   0  0  0  0  0  0  0  0  0  0  0  0
   -3.5244    1.8322   -2.4573 H   0  0  0  0  0  0  0  0  0  0  0  0
   -3.7540    1.8319   -0.7544 H   0  0  0  0  0  0  0  0  0  0  0  0
   -5.1663    3.9348   -2.6976 H   0  0  0  0  0  0  0  0  0  0  0  0
   -6.7827    4.3771   -0.8886 H   0  0  0  0  0  0  0  0  0  0  0  0
   -5.8662    3.0990   -0.0370 H   0  0  0  0  0  0  0  0  0  0  0  0
   -3.4890    6.1799    1.1487 H   0  0  0  0  0  0  0  0  0  0  0  0
   -6.1388    1.4984   -1.7786 H   0  0  0  0  0  0  0  0  0  0  0  0
   -1.0255    3.4067   -0.4797 H   0  0  0  0  0  0  0  0  0  0  0  0
   -3.7781    3.1569   -4.0343 H   0  0  0  0  0  0  0  0  0  0  0  0
   -1.6251    2.0465   -3.6341 H   0  0  0  0  0  0  0  0  0  0  0  0
    0.3861    5.5977   -4.7551 H   0  0  0  0  0  0  0  0  0  0  0  0
   -1.7869    6.8788   -4.6506 H   0  0  0  0  0  0  0  0  0  0  0  0
   -4.8641    8.1146   -6.6142 H   0  0  0  0  0  0  0  0  0  0  0  0
   -4.4857    7.4575   -8.9774 H   0  0  0  0  0  0  0  0  0  0  0  0
   -4.3833    5.0581   -9.6111 H   0  0  0  0  0  0  0  0  0  0  0  0
   -4.6021    3.3077   -7.8684 H   0  0  0  0  0  0  0  0  0  0  0  0
   -5.0636    3.9436   -5.5696 H   0  0  0  0  0  0  0  0  0  0  0  0
   -9.4117    8.8067   -4.3381 H   0  0  0  0  0  0  0  0  0  0  0  0
  -10.9154    8.1502   -2.0293 H   0  0  0  0  0  0  0  0  0  0  0  0
  -10.9251    8.5870    0.4867 H   0  0  0  0  0  0  0  0  0  0  0  0
   -8.9212    9.4039    1.5885 H   0  0  0  0  0  0  0  0  0  0  0  0
   -7.1933   10.0962    0.4145 H   0  0  0  0  0  0  0  0  0  0  0  0
   -7.1636    9.8557   -2.3564 H   0  0  0  0  0  0  0  0  0  0  0  0
  1  2  1  0  0  0  0
  1 42  1  0  0  0  0
  1 43  1  0  0  0  0
  1 44  1  0  0  0  0
  2  3  1  0  0  0  0
  2  4  1  0  0  0  0
  2 45  1  0  0  0  0
  3 46  1  0  0  0  0
  3 47  1  0  0  0  0
  3 48  1  0  0  0  0
  4  5  2  0  0  0  0
  4  8  1  0  0  0  0
  5  6  1  0  0  0  0
  5 33  1  0  0  0  0
  6  7  2  0  0  0  0
  6 27  1  0  0  0  0
  7  8  1  0  0  0  0
  7 20  1  0  0  0  0
  8  9  1  0  0  0  0
  9 10  1  0  0  0  0
  9 49  1  0  0  0  0
  9 50  1  0  0  0  0
 10 51  1  0  0  0  0
 10 52  1  0  0  0  0
 11 19  1  0  0  0  0
 11 53  1  6  0  0  0
 11 12  1  0  0  0  0
 11 10  1  0  0  0  0
 12 54  1  0  0  0  0
 12 55  1  0  0  0  0
 13 18  1  0  0  0  0
 13 56  1  6  0  0  0
 13 14  1  0  0  0  0
 13 12  1  0  0  0  0
 14 15  1  0  0  0  0
 14 57  1  0  0  0  0
 14 58  1  0  0  0  0
 15 16  2  0  0  0  0
 15 17  1  0  0  0  0
 17 59  1  0  0  0  0
 18 60  1  0  0  0  0
 19 61  1  0  0  0  0
 20 21  2  0  0  0  0
 20 25  1  0  0  0  0
 21 22  1  0  0  0  0
 21 62  1  0  0  0  0
 22 23  2  0  0  0  0
 22 63  1  0  0  0  0
 23 24  1  0  0  0  0
 23 26  1  0  0  0  0
 24 25  2  0  0  0  0
 24 64  1  0  0  0  0
 25 65  1  0  0  0  0
 27 28  2  0  0  0  0
 27 32  1  0  0  0  0
 28 29  1  0  0  0  0
 28 66  1  0  0  0  0
 29 30  2  0  0  0  0
 29 67  1  0  0  0  0
 30 31  1  0  0  0  0
 30 68  1  0  0  0  0
 31 32  2  0  0  0  0
 31 69  1  0  0  0  0
 32 70  1  0  0  0  0
 33 34  2  0  0  0  0
 33 35  1  0  0  0  0
 35 36  1  0  0  0  0
 35 71  1  0  0  0  0
 36 37  2  0  0  0  0
 36 41  1  0  0  0  0
 37 38  1  0  0  0  0
 37 72  1  0  0  0  0
 38 39  2  0  0  0  0
 38 73  1  0  0  0  0
 39 40  1  0  0  0  0
 39 74  1  0  0  0  0
 40 41  2  0  0  0  0
 40 75  1  0  0  0  0
 41 76  1  0  0  0  0
M  END
$$$$

 OpenBabel05152416213D

151156  0  0  1  0  0  0  0  0999 V2000
   -5.0300    1.7101   -8.0110 C   0  0  0  0  0  0  0  0  0  0  0  0
   -3.5769    1.4761   -8.7050 C   0  0  0  0  0  0  0  0  0  0  0  0
   -3.4747    1.5742  -10.0586 C   0  0  0  0  0  0  0  0  0  0  0  0
   -2.2553    1.8673   -7.9099 C   0  0  0  0  0  0  0  0  0  0  0  0
   -1.0052    2.6835   -8.0492 C   0  0  0  0  0  0  0  0  0  0  0  0
   -0.2251    2.3752   -6.8628 C   0  0  0  0  0  0  0  0  0  0  0  0
   -0.9185    1.4959   -6.1432 C   0  0  0  0  0  0  0  0  0  0  0  0
   -2.1943    1.2036   -6.7578 N   0  0  0  0  0  0  0  0  0  0  0  0
   -3.4729    0.3617   -6.3583 C   0  0  0  0  0  0  0  0  0  0  0  0
   -3.3089   -1.0300   -6.0274 C   0  0  0  0  0  0  0  0  0  0  0  0
   -2.2774   -0.8524   -5.2454 C   0  0  2  0  0  0  0  0  0  0  0  0
   -2.4556    0.3474   -4.0694 C   0  0  0  0  0  0  0  0  0  0  0  0
   -1.4943    0.5199   -2.9135 C   0  0  2  0  0  0  0  0  0  0  0  0
   -2.3553    1.8654   -2.1363 C   0  0  0  0  0  0  0  0  0  0  0  0
   -3.8458    1.7787   -2.1605 C   0  0  0  0  0  0  0  0  0  0  0  0
   -4.4190    1.4783   -1.1360 O   0  0  0  0  0  0  0  0  0  0  0  0
   -4.5538    1.9312   -3.2986 O   0  5  0  0  0  0  0  0  0  0  0  0
    0.8570    0.3819   -3.0795 O   0  0  0  0  0  0  0  0  0  0  0  0
   -1.1886   -1.0367   -6.3269 O   0  0  0  0  0  0  0  0  0  0  0  0
   -0.2114    0.9245   -4.8047 C   0  0  0  0  0  0  0  0  0  0  0  0
   -0.0764   -0.9578   -4.2654 C   0  0  0  0  0  0  0  0  0  0  0  0
   -0.1526   -1.4416   -2.6652 C   0  0  0  0  0  0  0  0  0  0  0  0
   -0.0831   -0.3320   -1.2992 C   0  0  0  0  0  0  0  0  0  0  0  0
    0.0322    1.6005   -1.5240 C   0  0  0  0  0  0  0  0  0  0  0  0
   -0.0998    2.2655   -3.4382 C   0  0  0  0  0  0  0  0  0  0  0  0
   -0.4755   -1.0145   -0.2233 F   0  0  0  0  0  0  0  0  0  0  0  0
    1.1411    2.7407   -6.2987 C   0  0  0  0  0  0  0  0  0  0  0  0
    1.4866    4.0570   -6.0228 C   0  0  0  0  0  0  0  0  0  0  0  0
    2.7752    4.3626   -5.5613 C   0  0  0  0  0  0  0  0  0  0  0  0
    3.6933    3.3552   -5.2544 C   0  0  0  0  0  0  0  0  0  0  0  0
    3.3259    2.0274   -5.3859 C   0  0  0  0  0  0  0  0  0  0  0  0
    2.0776    1.7212   -5.9086 C   0  0  0  0  0  0  0  0  0  0  0  0
   -0.3966    3.6025   -9.1622 C   0  0  0  0  0  0  0  0  0  0  0  0
    0.7869    3.9270   -8.9953 O   0  0  0  0  0  0  0  0  0  0  0  0
   -1.0394    4.0714  -10.3325 N   0  0  0  0  0  0  0  0  0  0  0  0
   -2.5118    4.1427  -10.6260 C   0  0  0  0  0  0  0  0  0  0  0  0
   -3.0287    3.3988  -12.0342 C   0  0  0  0  0  0  0  0  0  0  0  0
   -4.5757    2.8585  -12.1951 C   0  0  0  0  0  0  0  0  0  0  0  0
   -5.6655    3.0843  -10.9933 C   0  0  0  0  0  0  0  0  0  0  0  0
   -5.2316    3.9279   -9.6130 C   0  0  0  0  0  0  0  0  0  0  0  0
   -3.5988    4.4038   -9.3843 C   0  0  0  0  0  0  0  0  0  0  0  0
   -7.8444    9.9779   -1.6455 C   0  0  0  0  0  0  0  0  0  0  0  0
   -6.4807   10.0884   -1.1551 C   0  0  0  0  0  0  0  0  0  0  0  0
   -6.8238    9.6683    0.3533 C   0  0  0  0  0  0  0  0  0  0  0  0
   -5.7825    9.7217   -2.4903 C   0  0  0  0  0  0  0  0  0  0  0  0
   -6.2443    9.9378   -3.8844 C   0  0  0  0  0  0  0  0  0  0  0  0
   -5.2249    9.1949   -4.6265 C   0  0  0  0  0  0  0  0  0  0  0  0
   -4.2354    8.7554   -3.7790 C   0  0  0  0  0  0  0  0  0  0  0  0
   -4.5346    9.1458   -2.5012 N   0  0  0  0  0  0  0  0  0  0  0  0
   -3.5994    9.0760   -1.3294 C   0  0  0  0  0  0  0  0  0  0  0  0
   -3.1050    7.4828   -0.7026 C   0  0  0  0  0  0  0  0  0  0  0  0
   -2.7789    6.5197   -1.5236 C   0  0  2  0  0  0  0  0  0  0  0  0
   -3.7444    5.2372   -1.8189 C   0  0  0  0  0  0  0  0  0  0  0  0
   -5.2006    5.9209   -2.1884 C   0  0  2  0  0  0  0  0  0  0  0  0
   -5.7508    6.8512   -0.9759 C   0  0  0  0  0  0  0  0  0  0  0  0
   -5.3728    7.6400    0.4777 C   0  0  0  0  0  0  0  0  0  0  0  0
   -6.0739    7.3518    1.3865 O   0  0  0  0  0  0  0  0  0  0  0  0
   -4.3954    8.5404    0.9448 O   0  5  0  0  0  0  0  0  0  0  0  0
   -6.1083    4.9479   -2.6658 O   0  0  0  0  0  0  0  0  0  0  0  0
   -1.3923    6.6545   -1.4898 O   0  0  0  0  0  0  0  0  0  0  0  0
   -2.9540    7.9535   -4.2119 C   0  0  0  0  0  0  0  0  0  0  0  0
   -2.8543    6.5444   -4.1420 C   0  0  0  0  0  0  0  0  0  0  0  0
   -1.6587    5.8682   -3.8556 C   0  0  0  0  0  0  0  0  0  0  0  0
   -0.5228    6.4738   -4.1229 C   0  0  0  0  0  0  0  0  0  0  0  0
   -0.5943    7.7653   -4.6598 C   0  0  0  0  0  0  0  0  0  0  0  0
   -1.7983    8.5347   -4.6040 C   0  0  0  0  0  0  0  0  0  0  0  0
    0.5993    5.7594   -3.8819 F   0  0  0  0  0  0  0  0  0  0  0  0
   -4.9843    8.8345   -6.0292 C   0  0  0  0  0  0  0  0  0  0  0  0
   -4.7692    9.8001   -6.9977 C   0  0  0  0  0  0  0  0  0  0  0  0
   -4.6049    9.4161   -8.3300 C   0  0  0  0  0  0  0  0  0  0  0  0
   -4.5546    8.0687   -8.6852 C   0  0  0  0  0  0  0  0  0  0  0  0
   -4.6583    7.0987   -7.6987 C   0  0  0  0  0  0  0  0  0  0  0  0
   -4.8630    7.4674   -6.3800 C   0  0  0  0  0  0  0  0  0  0  0  0
   -7.5374   10.6965   -4.5461 C   0  0  0  0  0  0  0  0  0  0  0  0
   -7.6665   10.4937   -5.7551 O   0  0  0  0  0  0  0  0  0  0  0  0
   -8.5346   11.5624   -3.9735 N   0  0  0  0  0  0  0  0  0  0  0  0
   -8.5831   12.2269   -2.6491 C   0  0  0  0  0  0  0  0  0  0  0  0
   -9.7778   12.0668   -1.7716 C   0  0  0  0  0  0  0  0  0  0  0  0
   -9.6618   12.2656   -0.3243 C   0  0  0  0  0  0  0  0  0  0  0  0
   -8.3996   12.5913    0.2592 C   0  0  0  0  0  0  0  0  0  0  0  0
   -7.2677   12.8215   -0.5544 C   0  0  0  0  0  0  0  0  0  0  0  0
   -7.3397   12.6485   -1.9963 C   0  0  0  0  0  0  0  0  0  0  0  0
    1.5206    0.1782    0.6678 Ca  0  2  0  0  0  0  0  0  0  0  0  0
   -4.9464    2.5581   -7.2971 H   0  0  0  0  0  0  0  0  0  0  0  0
   -5.5821    1.0501   -7.2931 H   0  0  0  0  0  0  0  0  0  0  0  0
   -5.8704    1.4588   -8.6608 H   0  0  0  0  0  0  0  0  0  0  0  0
   -3.6046    0.4164   -9.0296 H   0  0  0  0  0  0  0  0  0  0  0  0
   -3.7744    2.4631  -10.2243 H   0  0  0  0  0  0  0  0  0  0  0  0
   -2.4652    1.6916  -10.3562 H   0  0  0  0  0  0  0  0  0  0  0  0
   -3.7720    2.4570  -10.1874 H   0  0  0  0  0  0  0  0  0  0  0  0
   -4.1506    0.8927   -5.6256 H   0  0  0  0  0  0  0  0  0  0  0  0
   -4.1206   -0.0843   -7.0467 H   0  0  0  0  0  0  0  0  0  0  0  0
   -4.0847   -1.5677   -5.4704 H   0  0  0  0  0  0  0  0  0  0  0  0
   -3.0177   -1.6762   -6.9190 H   0  0  0  0  0  0  0  0  0  0  0  0
   -2.3124   -1.6391   -4.4680 H   0  0  0  0  0  0  0  0  0  0  0  0
   -2.5281    1.4152   -4.4372 H   0  0  0  0  0  0  0  0  0  0  0  0
   -2.5814    1.4048   -4.4369 H   0  0  0  0  0  0  0  0  0  0  0  0
   -2.0683   -0.2379   -2.3188 H   0  0  0  0  0  0  0  0  0  0  0  0
   -2.1542    2.0854   -1.0642 H   0  0  0  0  0  0  0  0  0  0  0  0
   -2.1218    2.9051   -2.4972 H   0  0  0  0  0  0  0  0  0  0  0  0
    1.6701    1.0433   -3.1742 H   0  0  0  0  0  0  0  0  0  0  0  0
   -0.4912   -0.5250   -6.8663 H   0  0  0  0  0  0  0  0  0  0  0  0
   -0.2198   -1.9533   -4.7934 H   0  0  0  0  0  0  0  0  0  0  0  0
   -0.4644   -2.4788   -2.5949 H   0  0  0  0  0  0  0  0  0  0  0  0
   -0.0600    2.1792   -0.6828 H   0  0  0  0  0  0  0  0  0  0  0  0
   -0.3364    3.2589   -3.7506 H   0  0  0  0  0  0  0  0  0  0  0  0
    0.7519    4.8355   -6.1574 H   0  0  0  0  0  0  0  0  0  0  0  0
    3.0728    5.3876   -5.4520 H   0  0  0  0  0  0  0  0  0  0  0  0
    4.6846    3.6044   -4.9050 H   0  0  0  0  0  0  0  0  0  0  0  0
    4.0133    1.2308   -5.1193 H   0  0  0  0  0  0  0  0  0  0  0  0
    1.8512    0.6630   -5.9892 H   0  0  0  0  0  0  0  0  0  0  0  0
   -0.4354    4.4617  -11.0945 H   0  0  0  0  0  0  0  0  0  0  0  0
   -2.2190    2.8217  -12.7339 H   0  0  0  0  0  0  0  0  0  0  0  0
   -4.7902    1.9825  -12.9915 H   0  0  0  0  0  0  0  0  0  0  0  0
   -6.5698    2.2545  -10.9699 H   0  0  0  0  0  0  0  0  0  0  0  0
   -6.0151    3.7593   -8.6943 H   0  0  0  0  0  0  0  0  0  0  0  0
   -3.0816    4.4735   -8.2482 H   0  0  0  0  0  0  0  0  0  0  0  0
   -8.6549    9.3358   -1.9414 H   0  0  0  0  0  0  0  0  0  0  0  0
   -8.1939   10.6778   -1.0337 H   0  0  0  0  0  0  0  0  0  0  0  0
   -8.4654   10.4041   -0.9024 H   0  0  0  0  0  0  0  0  0  0  0  0
   -5.8660   10.9717   -0.9104 H   0  0  0  0  0  0  0  0  0  0  0  0
   -7.4214    8.7050    0.2334 H   0  0  0  0  0  0  0  0  0  0  0  0
   -5.9915    9.9349    0.9845 H   0  0  0  0  0  0  0  0  0  0  0  0
   -7.5249   10.1837    1.0578 H   0  0  0  0  0  0  0  0  0  0  0  0
   -2.6990    9.6535   -1.6407 H   0  0  0  0  0  0  0  0  0  0  0  0
   -3.9195    9.9167   -0.6587 H   0  0  0  0  0  0  0  0  0  0  0  0
   -3.1884    6.8596    0.2326 H   0  0  0  0  0  0  0  0  0  0  0  0
   -3.5437    6.6526   -0.0548 H   0  0  0  0  0  0  0  0  0  0  0  0
   -3.2448    7.1230   -2.1305 H   0  0  0  0  0  0  0  0  0  0  0  0
   -3.5309    4.5196   -2.6702 H   0  0  0  0  0  0  0  0  0  0  0  0
   -3.6241    4.5163   -0.9767 H   0  0  0  0  0  0  0  0  0  0  0  0
   -5.2797    6.5843   -3.1027 H   0  0  0  0  0  0  0  0  0  0  0  0
   -6.8301    6.8875   -1.1336 H   0  0  0  0  0  0  0  0  0  0  0  0
   -5.6614    5.9138   -0.5111 H   0  0  0  0  0  0  0  0  0  0  0  0
   -6.1748    4.2541   -1.9806 H   0  0  0  0  0  0  0  0  0  0  0  0
   -1.0880    6.2060   -0.6739 H   0  0  0  0  0  0  0  0  0  0  0  0
   -3.6652    6.0408   -3.9603 H   0  0  0  0  0  0  0  0  0  0  0  0
   -1.5841    4.9314   -3.2620 H   0  0  0  0  0  0  0  0  0  0  0  0
    0.2846    8.1748   -5.0296 H   0  0  0  0  0  0  0  0  0  0  0  0
   -1.8953    9.5612   -4.8626 H   0  0  0  0  0  0  0  0  0  0  0  0
   -4.7193   10.8389   -6.7114 H   0  0  0  0  0  0  0  0  0  0  0  0
   -4.5331   10.1646   -9.0936 H   0  0  0  0  0  0  0  0  0  0  0  0
   -4.4298    7.7842   -9.7211 H   0  0  0  0  0  0  0  0  0  0  0  0
   -4.6233    6.0654   -7.9484 H   0  0  0  0  0  0  0  0  0  0  0  0
   -4.9451    6.6765   -5.6441 H   0  0  0  0  0  0  0  0  0  0  0  0
   -9.3668   11.7678   -4.5823 H   0  0  0  0  0  0  0  0  0  0  0  0
  -10.6428   11.4249   -2.0755 H   0  0  0  0  0  0  0  0  0  0  0  0
  -10.4206   11.8812    0.3771 H   0  0  0  0  0  0  0  0  0  0  0  0
   -8.2308   12.4305    1.3448 H   0  0  0  0  0  0  0  0  0  0  0  0
   -6.2930   12.8679   -0.0130 H   0  0  0  0  0  0  0  0  0  0  0  0
   -6.3610   12.5454   -2.5185 H   0  0  0  0  0  0  0  0  0  0  0  0
  1  2  1  0  0  0  0
  1 84  1  0  0  0  0
  1 85  1  0  0  0  0
  1 86  1  0  0  0  0
  2  3  1  0  0  0  0
  2  4  1  0  0  0  0
  2 87  1  0  0  0  0
  3 88  1  0  0  0  0
  3 89  1  0  0  0  0
  3 90  1  0  0  0  0
  4  5  2  0  0  0  0
  4  8  1  0  0  0  0
  5  6  1  0  0  0  0
  5 33  1  0  0  0  0
  6  7  2  0  0  0  0
  6 27  1  0  0  0  0
  7  8  1  0  0  0  0
  7 20  1  0  0  0  0
  8  9  1  0  0  0  0
  9 10  1  0  0  0  0
  9 91  1  0  0  0  0
  9 92  1  0  0  0  0
 10 93  1  0  0  0  0
 10 94  1  0  0  0  0
 11 19  1  0  0  0  0
 11 95  1  1  0  0  0
 11 12  1  0  0  0  0
 11 10  1  0  0  0  0
 12 96  1  0  0  0  0
 12 97  1  0  0  0  0
 13 18  1  0  0  0  0
 13 98  1  1  0  0  0
 13 14  1  0  0  0  0
 13 12  1  0  0  0  0
 14 15  1  0  0  0  0
 14 99  1  0  0  0  0
 14100  1  0  0  0  0
 15 16  2  0  0  0  0
 15 17  1  0  0  0  0
 18101  1  0  0  0  0
 19102  1  0  0  0  0
 20 21  2  0  0  0  0
 20 25  1  0  0  0  0
 21 22  1  0  0  0  0
 21103  1  0  0  0  0
 22 23  2  0  0  0  0
 22104  1  0  0  0  0
 23 24  1  0  0  0  0
 23 26  1  0  0  0  0
 24 25  2  0  0  0  0
 24105  1  0  0  0  0
 25106  1  0  0  0  0
 27 28  2  0  0  0  0
 27 32  1  0  0  0  0
 28 29  1  0  0  0  0
 28107  1  0  0  0  0
 29 30  2  0  0  0  0
 29108  1  0  0  0  0
 30 31  1  0  0  0  0
 30109  1  0  0  0  0
 31 32  2  0  0  0  0
 31110  1  0  0  0  0
 32111  1  0  0  0  0
 33 34  2  0  0  0  0
 33 35  1  0  0  0  0
 35 36  1  0  0  0  0
 35112  1  0  0  0  0
 36 37  2  0  0  0  0
 36 41  1  0  0  0  0
 37 38  1  0  0  0  0
 37113  1  0  0  0  0
 38 39  2  0  0  0  0
 38114  1  0  0  0  0
 39 40  1  0  0  0  0
 39115  1  0  0  0  0
 40 41  2  0  0  0  0
 40116  1  0  0  0  0
 41117  1  0  0  0  0
 42 43  1  0  0  0  0
 42118  1  0  0  0  0
 42119  1  0  0  0  0
 42120  1  0  0  0  0
 43 44  1  0  0  0  0
 43 45  1  0  0  0  0
 43121  1  0  0  0  0
 44122  1  0  0  0  0
 44123  1  0  0  0  0
 44124  1  0  0  0  0
 45 46  2  0  0  0  0
 45 49  1  0  0  0  0
 46 47  1  0  0  0  0
 46 74  1  0  0  0  0
 47 48  2  0  0  0  0
 47 68  1  0  0  0  0
 48 49  1  0  0  0  0
 48 61  1  0  0  0  0
 49 50  1  0  0  0  0
 50 51  1  0  0  0  0
 50125  1  0  0  0  0
 50126  1  0  0  0  0
 51127  1  0  0  0  0
 51128  1  0  0  0  0
 52 60  1  0  0  0  0
 52129  1  6  0  0  0
 52 53  1  0  0  0  0
 52 51  1  0  0  0  0
 53130  1  0  0  0  0
 53131  1  0  0  0  0
 54 59  1  0  0  0  0
 54132  1  6  0  0  0
 54 55  1  0  0  0  0
 54 53  1  0  0  0  0
 55 56  1  0  0  0  0
 55133  1  0  0  0  0
 55134  1  0  0  0  0
 56 57  2  0  0  0  0
 56 58  1  0  0  0  0
 59135  1  0  0  0  0
 60136  1  0  0  0  0
 61 62  2  0  0  0  0
 61 66  1  0  0  0  0
 62 63  1  0  0  0  0
 62137  1  0  0  0  0
 63 64  2  0  0  0  0
 63138  1  0  0  0  0
 64 65  1  0  0  0  0
 64 67  1  0  0  0  0
 65 66  2  0  0  0  0
 65139  1  0  0  0  0
 66140  1  0  0  0  0
 68 69  2  0  0  0  0
 68 73  1  0  0  0  0
 69 70  1  0  0  0  0
 69141  1  0  0  0  0
 70 71  2  0  0  0  0
 70142  1  0  0  0  0
 71 72  1  0  0  0  0
 71143  1  0  0  0  0
 72 73  2  0  0  0  0
 72144  1  0  0  0  0
 73145  1  0  0  0  0
 74 75  2  0  0  0  0
 74 76  1  0  0  0  0
 76 77  1  0  0  0  0
 76146  1  0  0  0  0
 77 78  2  0  0  0  0
 77 82  1  0  0  0  0
 78 79  1  0  0  0  0
 78147  1  0  0  0  0
 79 80  2  0  0  0  0
 79148  1  0  0  0  0
 80 81  1  0  0  0  0
 80149  1  0  0  0  0
 81 82  2  0  0  0  0
 81150  1  0  0  0  0
 82151  1  0  0  0  0
M  CHG  3  17  -1  58  -1  83   2
M  END
$$$$

 OpenBabel05152416213D

 49 50  0  0  0  0  0  0  0  0999 V2000
    0.9253    0.0050   -0.0240 C   0  0  0  0  0  0  0  0  0  0  0  0
    0.4418    1.3867   -0.5145 C   0  0  0  0  0  0  0  0  0  0  0  0
    0.9748    1.5950   -1.9509 C   0  0  0  0  0  0  0  0  0  0  0  0
   -1.0977    1.3903   -0.5314 C   0  0  0  0  0  0  0  0  0  0  0  0
    0.8548    2.5237    0.4249 C   0  0  0  0  0  0  0  0  0  0  0  0
    1.3076    2.2902    1.7450 C   0  0  0  0  0  0  0  0  0  0  0  0
    1.5156    3.3539    2.6198 C   0  0  0  0  0  0  0  0  0  0  0  0
    1.3077    4.6710    2.1954 C   0  0  0  0  0  0  0  0  0  0  0  0
    0.9144    4.9149    0.8774 C   0  0  0  0  0  0  0  0  0  0  0  0
    0.6786    3.8590    0.0098 C   0  0  0  0  0  0  0  0  0  0  0  0
    1.5319    5.8204    3.1277 C   0  0  0  0  0  0  0  0  0  0  0  0
    0.5211    5.7726    4.6582 S   0  0  0  0  0  0  0  0  0  0  0  0
   -1.1472    5.8448    3.9655 C   0  0  0  0  0  0  0  0  0  0  0  0
   -1.8753    4.6719    3.7470 C   0  0  0  0  0  0  0  0  0  0  0  0
   -3.1839    4.7511    3.2901 C   0  0  0  0  0  0  0  0  0  0  0  0
   -3.7979    3.7117    3.1103 O   0  0  0  0  0  0  0  0  0  0  0  0
   -3.7791    5.9816    3.0654 N   0  0  0  0  0  0  0  0  0  0  0  0
   -3.0612    7.0987    3.2814 N   0  0  0  0  0  0  0  0  0  0  0  0
   -1.7731    7.0707    3.7193 C   0  0  0  0  0  0  0  0  0  0  0  0
   -5.1944    6.0857    2.6064 C   0  0  0  0  0  0  0  0  0  0  0  0
   -5.3493    5.3975    1.2322 C   0  0  0  0  0  0  0  0  0  0  0  0
   -6.1417    5.4275    3.6404 C   0  0  0  0  0  0  0  0  0  0  0  0
   -5.6308    7.5602    2.4497 C   0  0  0  0  0  0  0  0  0  0  0  0
   -1.2062    3.0780    4.0816 Cl  0  0  0  0  0  0  0  0  0  0  0  0
    0.5802   -0.7968   -0.7091 H   0  0  0  0  0  0  0  0  0  0  0  0
    0.5141   -0.2369    0.9774 H   0  0  0  0  0  0  0  0  0  0  0  0
    2.0373   -0.0149    0.0166 H   0  0  0  0  0  0  0  0  0  0  0  0
    0.6242    0.7729   -2.6111 H   0  0  0  0  0  0  0  0  0  0  0  0
    0.5919    2.5283   -2.4099 H   0  0  0  0  0  0  0  0  0  0  0  0
    2.0842    1.6256   -1.9604 H   0  0  0  0  0  0  0  0  0  0  0  0
   -1.4851    1.2312    0.5012 H   0  0  0  0  0  0  0  0  0  0  0  0
   -1.4898    2.3667   -0.8904 H   0  0  0  0  0  0  0  0  0  0  0  0
   -1.4936    0.5876   -1.1845 H   0  0  0  0  0  0  0  0  0  0  0  0
    1.4624    1.2993    2.1438 H   0  0  0  0  0  0  0  0  0  0  0  0
    1.8125    3.1447    3.6399 H   0  0  0  0  0  0  0  0  0  0  0  0
    0.7672    5.9240    0.5170 H   0  0  0  0  0  0  0  0  0  0  0  0
    0.3415    4.1044   -0.9849 H   0  0  0  0  0  0  0  0  0  0  0  0
    2.5909    5.7505    3.4463 H   0  0  0  0  0  0  0  0  0  0  0  0
    1.4000    6.7978    2.6209 H   0  0  0  0  0  0  0  0  0  0  0  0
   -1.2512    8.0035    3.9008 H   0  0  0  0  0  0  0  0  0  0  0  0
   -5.0958    4.3214    1.2651 H   0  0  0  0  0  0  0  0  0  0  0  0
   -6.3977    5.4639    0.8746 H   0  0  0  0  0  0  0  0  0  0  0  0
   -4.6778    5.8800    0.4905 H   0  0  0  0  0  0  0  0  0  0  0  0
   -6.0448    5.9307    4.6263 H   0  0  0  0  0  0  0  0  0  0  0  0
   -7.1979    5.4935    3.3041 H   0  0  0  0  0  0  0  0  0  0  0  0
   -5.9322    4.3522    3.7919 H   0  0  0  0  0  0  0  0  0  0  0  0
   -5.5563    8.0949    3.4213 H   0  0  0  0  0  0  0  0  0  0  0  0
   -4.9899    8.0790    1.7057 H   0  0  0  0  0  0  0  0  0  0  0  0
   -6.6862    7.6210    2.1022 H   0  0  0  0  0  0  0  0  0  0  0  0
  1  2  1  0  0  0  0
  1 25  1  0  0  0  0
  1 26  1  0  0  0  0
  1 27  1  0  0  0  0
  2  3  1  0  0  0  0
  2  4  1  0  0  0  0
  2  5  1  0  0  0  0
  3 28  1  0  0  0  0
  3 29  1  0  0  0  0
  3 30  1  0  0  0  0
  4 31  1  0  0  0  0
  4 32  1  0  0  0  0
  4 33  1  0  0  0  0
  5  6  2  0  0  0  0
  5 10  1  0  0  0  0
  6  7  1  0  0  0  0
  6 34  1  0  0  0  0
  7  8  2  0  0  0  0
  7 35  1  0  0  0  0
  8  9  1  0  0  0  0
  8 11  1  0  0  0  0
  9 10  2  0  0  0  0
  9 36  1  0  0  0  0
 10 37  1  0  0  0  0
 11 12  1  0  0  0  0
 11 38  1  0  0  0  0
 11 39  1  0  0  0  0
 12 13  1  0  0  0  0
 13 14  2  0  0  0  0
 13 19  1  0  0  0  0
 14 15  1  0  0  0  0
 14 24  1  0  0  0  0
 15 16  2  0  0  0  0
 15 17  1  0  0  0  0
 17 18  1  0  0  0  0
 17 20  1  0  0  0  0
 18 19  2  0  0  0  0
 19 40  1  0  0  0  0
 20 21  1  0  0  0  0
 20 22  1  0  0  0  0
 20 23  1  0  0  0  0
 21 41  1  0  0  0  0
 21 42  1  0  0  0  0
 21 43  1  0  0  0  0
 22 44  1  0  0  0  0
 22 45  1  0  0  0  0
 22 46  1  0  0  0  0
 23 47  1  0  0  0  0
 23 48  1  0  0  0  0
 23 49  1  0  0  0  0
M  END
$$$$

 OpenBabel05152416213D

 45 47  0  0  0  0  0  0  0  0999 V2000
    0.9383   -0.1959    0.0346 C   0  0  0  0  0  0  0  0  0  0  0  0
    0.3924   -0.9737   -1.2406 C   0  0  0  0  0  0  0  0  0  0  0  0
    0.9868   -2.3155   -1.2575 C   0  0  0  0  0  0  0  0  0  0  0  0
   -1.0657   -0.7957   -1.2786 C   0  0  0  0  0  0  0  0  0  0  0  0
   -1.6800    0.5132   -1.3550 C   0  0  0  0  0  0  0  0  0  0  0  0
   -3.1203    0.4137   -1.0747 C   0  0  0  0  0  0  0  0  0  0  0  0
   -3.8156   -0.8219   -1.0384 C   0  0  0  0  0  0  0  0  0  0  0  0
   -3.1344   -2.0044   -1.1169 C   0  0  0  0  0  0  0  0  0  0  0  0
   -1.7886   -1.9833   -1.2183 C   0  0  0  0  0  0  0  0  0  0  0  0
   -3.9332    1.5713   -0.6861 C   0  0  0  0  0  0  0  0  0  0  0  0
   -3.2865    2.1349    0.6239 C   0  0  0  0  0  0  0  0  0  0  0  0
   -4.1132    2.4743   -1.8880 C   0  0  0  0  0  0  0  0  0  0  0  0
   -0.8227    1.7592   -1.7620 N   0  0  0  0  0  0  0  0  0  0  0  0
    0.5548    1.8729   -1.8541 C   0  0  0  0  0  0  0  0  0  0  0  0
    1.3487    1.0474   -2.0376 O   0  0  0  0  0  0  0  0  0  0  0  0
    1.2454    3.0294   -1.9931 C   0  0  0  0  0  0  0  0  0  0  0  0
    0.7164    3.4823   -2.9186 C   0  0  0  0  0  0  0  0  0  0  0  0
   -0.9914    3.0544   -2.2124 C   0  0  0  0  0  0  0  0  0  0  0  0
   -1.8230    3.7023   -1.5013 O   0  0  0  0  0  0  0  0  0  0  0  0
    2.0043    4.3939   -3.4819 C   0  0  0  0  0  0  0  0  0  0  0  0
    2.1786    5.5267   -2.6516 C   0  0  0  0  0  0  0  0  0  0  0  0
    1.4592    5.4051   -1.4910 C   0  0  0  0  0  0  0  0  0  0  0  0
    1.0529    4.1044   -1.1067 C   0  0  0  0  0  0  0  0  0  0  0  0
    2.9126    6.6488   -2.9076 O   0  0  0  0  0  0  0  0  0  0  0  0
    0.5780   -0.6531    0.9422 H   0  0  0  0  0  0  0  0  0  0  0  0
    0.5814    0.8524    0.1704 H   0  0  0  0  0  0  0  0  0  0  0  0
    2.0471   -0.1112   -0.0027 H   0  0  0  0  0  0  0  0  0  0  0  0
    0.6577   -0.7869   -2.2939 H   0  0  0  0  0  0  0  0  0  0  0  0
    0.6335   -2.8015   -0.3529 H   0  0  0  0  0  0  0  0  0  0  0  0
    0.6315   -2.8028   -2.1910 H   0  0  0  0  0  0  0  0  0  0  0  0
    2.0829   -2.2287   -1.2877 H   0  0  0  0  0  0  0  0  0  0  0  0
   -4.8989   -0.8547   -0.9627 H   0  0  0  0  0  0  0  0  0  0  0  0
   -3.6277   -2.9519   -1.0487 H   0  0  0  0  0  0  0  0  0  0  0  0
   -1.2957   -2.9302   -1.2813 H   0  0  0  0  0  0  0  0  0  0  0  0
   -4.9675    1.3044   -0.3949 H   0  0  0  0  0  0  0  0  0  0  0  0
   -2.1981    2.3259    0.5580 H   0  0  0  0  0  0  0  0  0  0  0  0
   -3.7933    3.0635    0.9344 H   0  0  0  0  0  0  0  0  0  0  0  0
   -3.3367    1.4042    1.4721 H   0  0  0  0  0  0  0  0  0  0  0  0
   -4.4746    2.0234   -2.8071 H   0  0  0  0  0  0  0  0  0  0  0  0
   -4.4849    3.4648   -1.5754 H   0  0  0  0  0  0  0  0  0  0  0  0
   -3.2835    2.5595   -2.5372 H   0  0  0  0  0  0  0  0  0  0  0  0
    3.1717    4.2708   -3.9160 H   0  0  0  0  0  0  0  0  0  0  0  0
    1.1931    6.2082   -0.9058 H   0  0  0  0  0  0  0  0  0  0  0  0
    0.1849    4.0877   -0.4754 H   0  0  0  0  0  0  0  0  0  0  0  0
    2.7128    7.4614   -2.3937 H   0  0  0  0  0  0  0  0  0  0  0  0
  1  2  1  0  0  0  0
  1 25  1  0  0  0  0
  1 26  1  0  0  0  0
  1 27  1  0  0  0  0
  2  3  1  0  0  0  0
  2  4  1  0  0  0  0
  2 28  1  0  0  0  0
  3 29  1  0  0  0  0
  3 30  1  0  0  0  0
  3 31  1  0  0  0  0
  4  5  2  0  0  0  0
  4  9  1  0  0  0  0
  5  6  1  0  0  0  0
  5 13  1  0  0  0  0
  6  7  2  0  0  0  0
  6 10  1  0  0  0  0
  7  8  1  0  0  0  0
  7 32  1  0  0  0  0
  8  9  2  0  0  0  0
  8 33  1  0  0  0  0
  9 34  1  0  0  0  0
 10 11  1  0  0  0  0
 10 12  1  0  0  0  0
 10 35  1  0  0  0  0
 11 36  1  0  0  0  0
 11 37  1  0  0  0  0
 11 38  1  0  0  0  0
 12 39  1  0  0  0  0
 12 40  1  0  0  0  0
 12 41  1  0  0  0  0
 13 14  1  0  0  0  0
 13 18  1  0  0  0  0
 14 15  2  0  0  0  0
 14 16  1  0  0  0  0
 16 17  2  0  0  0  0
 16 23  1  0  0  0  0
 17 18  1  0  0  0  0
 17 20  1  0  0  0  0
 18 19  2  0  0  0  0
 20 21  2  0  0  0  0
 20 42  1  0  0  0  0
 21 22  1  0  0  0  0
 21 24  1  0  0  0  0
 22 23  2  0  0  0  0
 22 43  1  0  0  0  0
 23 44  1  0  0  0  0
 24 45  1  0  0  0  0
M  END
$$$$

 OpenBabel05152416213D

 28 28  0  0  0  0  0  0  0  0999 V2000
    1.0467   -0.0498    0.0490 C   0  0  0  0  0  0  0  0  0  0  0  0
    0.5184    0.5283   -1.1231 O   0  0  0  0  0  0  0  0  0  0  0  0
    1.0950    2.1555   -1.2348 P   0  0  0  0  0  0  0  0  0  0  0  0
    0.9428    2.0984   -2.7787 O   0  0  0  0  0  0  0  0  0  0  0  0
   -0.5451    2.8245   -0.9790 O   0  0  0  0  0  0  0  0  0  0  0  0
   -1.5216    1.8738   -0.5685 C   0  0  0  0  0  0  0  0  0  0  0  0
    1.6717    3.7828   -1.3465 O   0  0  0  0  0  0  0  0  0  0  0  0
    3.0360    4.0366   -1.4100 C   0  0  0  0  0  0  0  0  0  0  0  0
    4.0374    3.0909   -1.4026 C   0  0  0  0  0  0  0  0  0  0  0  0
    3.9979    1.3279   -1.3161 Cl  0  0  0  0  0  0  0  0  0  0  0  0
    3.4962    5.4543   -1.4684 C   0  0  0  0  0  0  0  0  0  0  0  0
    4.5890    5.8016   -2.3029 C   0  0  0  0  0  0  0  0  0  0  0  0
    5.0565    7.1157   -2.3616 C   0  0  0  0  0  0  0  0  0  0  0  0
    4.4556    8.1015   -1.5731 C   0  0  0  0  0  0  0  0  0  0  0  0
    3.3849    7.7676   -0.7360 C   0  0  0  0  0  0  0  0  0  0  0  0
    2.8965    6.4564   -0.6869 C   0  0  0  0  0  0  0  0  0  0  0  0
    1.5854    6.1066    0.4370 Cl  0  0  0  0  0  0  0  0  0  0  0  0
    5.0254    9.7640   -1.6043 Cl  0  0  0  0  0  0  0  0  0  0  0  0
    6.4014    7.4932   -3.4338 Cl  0  0  0  0  0  0  0  0  0  0  0  0
    0.6303   -1.0738    0.1471 H   0  0  0  0  0  0  0  0  0  0  0  0
    0.7528    0.5073    0.9652 H   0  0  0  0  0  0  0  0  0  0  0  0
    2.1470   -0.1571   -0.0022 H   0  0  0  0  0  0  0  0  0  0  0  0
   -1.7730    1.1759   -1.4008 H   0  0  0  0  0  0  0  0  0  0  0  0
   -1.2221    1.3228    0.3466 H   0  0  0  0  0  0  0  0  0  0  0  0
   -2.4595    2.3856   -0.2831 H   0  0  0  0  0  0  0  0  0  0  0  0
    5.0724    3.4148   -1.4132 H   0  0  0  0  0  0  0  0  0  0  0  0
    5.0704    5.0579   -2.9257 H   0  0  0  0  0  0  0  0  0  0  0  0
    2.9366    8.5286   -0.1147 H   0  0  0  0  0  0  0  0  0  0  0  0
  1  2  1  0  0  0  0
  1 20  1  0  0  0  0
  1 21  1  0  0  0  0
  1 22  1  0  0  0  0
  2  3  1  0  0  0  0
  3  4  2  0  0  0  0
  3  5  1  0  0  0  0
  3  7  1  0  0  0  0
  5  6  1  0  0  0  0
  6 23  1  0  0  0  0
  6 24  1  0  0  0  0
  6 25  1  0  0  0  0
  7  8  1  0  0  0  0
  8  9  2  0  0  0  0
  8 11  1  0  0  0  0
  9 10  1  0  0  0  0
  9 26  1  0  0  0  0
 11 12  2  0  0  0  0
 11 16  1  0  0  0  0
 12 13  1  0  0  0  0
 12 27  1  0  0  0  0
 13 14  2  0  0  0  0
 13 19  1  0  0  0  0
 14 15  1  0  0  0  0
 14 18  1  0  0  0  0
 15 16  2  0  0  0  0
 15 28  1  0  0  0  0
 16 17  1  0  0  0  0
M  END
$$$$

 OpenBabel05152416213D

 34 34  0  0  0  0  0  0  0  0999 V2000
    0.8480   -0.7633   -0.0813 C   0  0  0  0  0  0  0  0  0  0  0  0
    0.5615   -0.8691    1.4796 C   0  0  0  0  0  0  0  0  0  0  0  0
    1.1322    0.0504    2.4642 O   0  0  0  0  0  0  0  0  0  0  0  0
    2.7584    0.7381    2.1422 P   0  0  0  0  0  0  0  0  0  0  0  0
    3.1687   -0.5051    1.3311 O   0  0  0  0  0  0  0  0  0  0  0  0
    2.7211    1.9126    0.8483 O   0  0  0  0  0  0  0  0  0  0  0  0
    1.6129    2.7924    0.9795 C   0  0  0  0  0  0  0  0  0  0  0  0
    0.5130    2.2080    0.1594 C   0  0  0  0  0  0  0  0  0  0  0  0
    4.4206    0.6695    2.6371 O   0  0  0  0  0  0  0  0  0  0  0  0
    5.0860    0.9934    3.7423 C   0  0  0  0  0  0  0  0  0  0  0  0
    4.4182    1.3655    4.8569 C   0  0  0  0  0  0  0  0  0  0  0  0
    5.1806    1.9779    6.3180 Cl  0  0  0  0  0  0  0  0  0  0  0  0
    6.5959    0.9578    3.6674 C   0  0  0  0  0  0  0  0  0  0  0  0
    7.3760    0.2954    4.6316 C   0  0  0  0  0  0  0  0  0  0  0  0
    8.7732    0.3234    4.5657 C   0  0  0  0  0  0  0  0  0  0  0  0
    9.4203    0.9893    3.5236 C   0  0  0  0  0  0  0  0  0  0  0  0
    8.6723    1.5970    2.5190 C   0  0  0  0  0  0  0  0  0  0  0  0
    7.2645    1.5783    2.5704 C   0  0  0  0  0  0  0  0  0  0  0  0
   11.1764    1.0271    3.4850 Cl  0  0  0  0  0  0  0  0  0  0  0  0
    6.6672   -0.6890    5.9124 Cl  0  0  0  0  0  0  0  0  0  0  0  0
    0.2075   -0.0635   -0.6382 H   0  0  0  0  0  0  0  0  0  0  0  0
    0.5395   -1.6801   -0.6087 H   0  0  0  0  0  0  0  0  0  0  0  0
    1.8815   -0.5509   -0.3974 H   0  0  0  0  0  0  0  0  0  0  0  0
   -0.5524   -0.7688    1.5423 H   0  0  0  0  0  0  0  0  0  0  0  0
    0.8045   -1.8901    1.8088 H   0  0  0  0  0  0  0  0  0  0  0  0
    1.2592    2.9728    2.0265 H   0  0  0  0  0  0  0  0  0  0  0  0
    1.8763    3.7677    0.5289 H   0  0  0  0  0  0  0  0  0  0  0  0
    0.2181    1.3979    0.7907 H   0  0  0  0  0  0  0  0  0  0  0  0
   -0.4805    2.6589    0.0267 H   0  0  0  0  0  0  0  0  0  0  0  0
    0.9680    1.9286   -0.8248 H   0  0  0  0  0  0  0  0  0  0  0  0
    3.3362    1.3671    4.8389 H   0  0  0  0  0  0  0  0  0  0  0  0
    9.3529   -0.1805    5.3233 H   0  0  0  0  0  0  0  0  0  0  0  0
    9.1843    2.0946    1.6986 H   0  0  0  0  0  0  0  0  0  0  0  0
    6.7182    2.0716    1.7794 H   0  0  0  0  0  0  0  0  0  0  0  0
  1  2  1  0  0  0  0
  1 21  1  0  0  0  0
  1 22  1  0  0  0  0
  1 23  1  0  0  0  0
  2  3  1  0  0  0  0
  2 24  1  0  0  0  0
  2 25  1  0  0  0  0
  3  4  1  0  0  0  0
  4  5  2  0  0  0  0
  4  6  1  0  0  0  0
  4  9  1  0  0  0  0
  6  7  1  0  0  0  0
  7  8  1  0  0  0  0
  7 26  1  0  0  0  0
  7 27  1  0  0  0  0
  8 28  1  0  0  0  0
  8 29  1  0  0  0  0
  8 30  1  0  0  0  0
  9 10  1  0  0  0  0
 10 11  2  0  0  0  0
 10 13  1  0  0  0  0
 11 12  1  0  0  0  0
 11 31  1  0  0  0  0
 13 14  2  0  0  0  0
 13 18  1  0  0  0  0
 14 15  1  0  0  0  0
 14 20  1  0  0  0  0
 15 16  2  0  0  0  0
 15 32  1  0  0  0  0
 16 17  1  0  0  0  0
 16 19  1  0  0  0  0
 17 18  2  0  0  0  0
 17 33  1  0  0  0  0
 18 34  1  0  0  0  0
M  END
$$$$

 OpenBabel05152416213D

 35 36  0  0  0  0  0  0  0  0999 V2000
    1.2671   -0.1367   -0.0457 C   0  0  0  0  0  0  0  0  0  0  0  0
    0.5625   -1.5003   -0.2119 C   0  0  0  0  0  0  0  0  0  0  0  0
    1.1074   -2.4765    0.8073 C   0  0  0  0  0  0  0  0  0  0  0  0
    0.3460   -3.1004    1.5371 O   0  0  0  0  0  0  0  0  0  0  0  0
    2.4377   -2.6455    0.9389 O   0  0  0  0  0  0  0  0  0  0  0  0
   -0.8400   -1.4618   -0.1571 O   0  0  0  0  0  0  0  0  0  0  0  0
   -1.6209   -1.0409    0.8796 C   0  0  0  0  0  0  0  0  0  0  0  0
   -2.7880   -1.7513    1.2305 C   0  0  0  0  0  0  0  0  0  0  0  0
   -3.5690   -1.3350    2.3316 C   0  0  0  0  0  0  0  0  0  0  0  0
   -3.1693   -0.2234    3.0984 C   0  0  0  0  0  0  0  0  0  0  0  0
   -2.0067    0.4551    2.7236 C   0  0  0  0  0  0  0  0  0  0  0  0
   -1.2882    0.0858    1.6287 C   0  0  0  0  0  0  0  0  0  0  0  0
   -3.8804    0.1799    4.1880 O   0  0  0  0  0  0  0  0  0  0  0  0
   -3.6150    1.3292    4.8793 C   0  0  0  0  0  0  0  0  0  0  0  0
   -3.5105    2.5896    4.2360 C   0  0  0  0  0  0  0  0  0  0  0  0
   -3.1280    3.7012    4.9815 C   0  0  0  0  0  0  0  0  0  0  0  0
   -2.8941    3.5900    6.3555 C   0  0  0  0  0  0  0  0  0  0  0  0
   -3.0458    2.3342    6.9626 C   0  0  0  0  0  0  0  0  0  0  0  0
   -3.3929    1.2474    6.2165 N   0  0  0  0  0  0  0  0  0  0  0  0
   -2.5135    4.7941    7.1783 C   0  0  0  0  0  0  0  0  0  0  0  0
   -3.4857    5.0091    8.1366 F   0  0  0  0  0  0  0  0  0  0  0  0
   -1.2987    4.5761    7.8009 F   0  0  0  0  0  0  0  0  0  0  0  0
   -2.4093    5.9328    6.3961 F   0  0  0  0  0  0  0  0  0  0  0  0
   -3.8361    2.8385    2.5188 Cl  0  0  0  0  0  0  0  0  0  0  0  0
    1.3423    0.1712    1.0139 H   0  0  0  0  0  0  0  0  0  0  0  0
    0.7792    0.6364   -0.6803 H   0  0  0  0  0  0  0  0  0  0  0  0
    2.3360   -0.2031   -0.3199 H   0  0  0  0  0  0  0  0  0  0  0  0
    0.8362   -1.8574   -1.2271 H   0  0  0  0  0  0  0  0  0  0  0  0
    2.8000   -3.2295    1.6207 H   0  0  0  0  0  0  0  0  0  0  0  0
   -3.0834   -2.6286    0.6655 H   0  0  0  0  0  0  0  0  0  0  0  0
   -4.4664   -1.8812    2.5949 H   0  0  0  0  0  0  0  0  0  0  0  0
   -1.6264    1.3063    3.2642 H   0  0  0  0  0  0  0  0  0  0  0  0
   -0.4897    0.7403    1.4178 H   0  0  0  0  0  0  0  0  0  0  0  0
   -3.0217    4.6515    4.4755 H   0  0  0  0  0  0  0  0  0  0  0  0
   -2.8812    2.2159    8.0256 H   0  0  0  0  0  0  0  0  0  0  0  0
  1  2  1  0  0  0  0
  1 25  1  0  0  0  0
  1 26  1  0  0  0  0
  1 27  1  0  0  0  0
  2  3  1  0  0  0  0
  2  6  1  0  0  0  0
  2 28  1  0  0  0  0
  3  4  2  0  0  0  0
  3  5  1  0  0  0  0
  5 29  1  0  0  0  0
  6  7  1  0  0  0  0
  7  8  2  0  0  0  0
  7 12  1  0  0  0  0
  8  9  1  0  0  0  0
  8 30  1  0  0  0  0
  9 10  2  0  0  0  0
  9 31  1  0  0  0  0
 10 11  1  0  0  0  0
 10 13  1  0  0  0  0
 11 12  2  0  0  0  0
 11 32  1  0  0  0  0
 12 33  1  0  0  0  0
 13 14  1  0  0  0  0
 14 15  2  0  0  0  0
 14 19  1  0  0  0  0
 15 16  1  0  0  0  0
 15 24  1  0  0  0  0
 16 17  2  0  0  0  0
 16 34  1  0  0  0  0
 17 18  1  0  0  0  0
 17 20  1  0  0  0  0
 18 19  2  0  0  0  0
 18 35  1  0  0  0  0
 20 21  1  0  0  0  0
 20 22  1  0  0  0  0
 20 23  1  0  0  0  0
M  END
$$$$

 OpenBabel05152416213D

 43 44  0  0  1  0  0  0  0  0999 V2000
    0.0433    0.0179   -2.4289 C   0  0  0  0  0  0  0  0  0  0  0  0
    0.6355    0.8105   -1.2942 C   0  0  1  0  0  0  0  0  0  0  0  0
    1.7430    1.8080   -1.7795 C   0  0  0  0  0  0  0  0  0  0  0  0
    2.3369    2.6926   -0.6565 C   0  0  1  0  0  0  0  0  0  0  0  0
    1.1442    3.2926   -0.0559 C   0  0  0  0  0  0  0  0  0  0  0  0
    0.9151    4.4817   -0.2405 O   0  0  0  0  0  0  0  0  0  0  0  0
    0.0974    2.3552    0.4893 C   0  0  1  0  0  0  0  0  0  0  0  0
   -0.5007    1.5632   -0.6282 C   0  0  0  0  0  0  0  0  0  0  0  0
    0.5244    1.5532    1.7593 C   0  0  1  0  0  0  0  0  0  0  0  0
    0.9884    2.5023    2.8854 C   0  0  0  0  0  0  0  0  0  0  0  0
   -0.1331    3.2907    3.6391 C   0  0  0  0  0  0  0  0  0  0  0  0
   -0.2829    4.7853    3.2841 C   0  0  0  0  0  0  0  0  0  0  0  0
   -1.0133    5.0200    2.0074 C   0  0  0  0  0  0  0  0  0  0  0  0
   -0.6278    5.9307    1.2630 O   0  0  0  0  0  0  0  0  0  0  0  0
   -2.0158    4.2081    1.6090 N   0  0  0  0  0  0  0  0  0  0  0  0
   -2.2573    2.9954    2.2581 C   0  0  0  0  0  0  0  0  0  0  0  0
   -2.8754    2.1326    1.6713 O   0  0  0  0  0  0  0  0  0  0  0  0
   -1.5457    2.6736    3.5726 C   0  0  0  0  0  0  0  0  0  0  0  0
   -0.2307    0.4726    2.2730 O   0  0  0  0  0  0  0  0  0  0  0  0
    3.2948    2.0120    0.3637 C   0  0  0  0  0  0  0  0  0  0  0  0
    0.8788   -0.3939   -3.0166 H   0  0  0  0  0  0  0  0  0  0  0  0
   -0.6096    0.6603   -3.0634 H   0  0  0  0  0  0  0  0  0  0  0  0
   -0.5666   -0.8036   -1.9920 H   0  0  0  0  0  0  0  0  0  0  0  0
    1.0773    0.0957   -0.5780 H   0  0  0  0  0  0  0  0  0  0  0  0
    2.5632    1.2758   -2.2768 H   0  0  0  0  0  0  0  0  0  0  0  0
    1.2493    2.5027   -2.5062 H   0  0  0  0  0  0  0  0  0  0  0  0
    2.9408    3.5167   -1.0955 H   0  0  0  0  0  0  0  0  0  0  0  0
   -0.6262    2.9790    0.6626 H   0  0  0  0  0  0  0  0  0  0  0  0
   -0.9769    2.2846   -1.3511 H   0  0  0  0  0  0  0  0  0  0  0  0
   -1.3311    0.9149   -0.2645 H   0  0  0  0  0  0  0  0  0  0  0  0
    1.2986    0.9618    1.4062 H   0  0  0  0  0  0  0  0  0  0  0  0
    1.5158    1.8371    3.6072 H   0  0  0  0  0  0  0  0  0  0  0  0
    1.7730    3.2209    2.5571 H   0  0  0  0  0  0  0  0  0  0  0  0
    0.2176    3.2952    4.6945 H   0  0  0  0  0  0  0  0  0  0  0  0
   -0.9883    5.1994    4.0281 H   0  0  0  0  0  0  0  0  0  0  0  0
    0.6743    5.3422    3.3588 H   0  0  0  0  0  0  0  0  0  0  0  0
   -2.4265    4.3493    0.6698 H   0  0  0  0  0  0  0  0  0  0  0  0
   -1.5094    1.6067    3.8809 H   0  0  0  0  0  0  0  0  0  0  0  0
   -2.1969    3.1464    4.3155 H   0  0  0  0  0  0  0  0  0  0  0  0
   -1.1818    0.4988    2.0511 H   0  0  0  0  0  0  0  0  0  0  0  0
    4.1962    1.6912   -0.1571 H   0  0  0  0  0  0  0  0  0  0  0  0
    3.5257    2.7166    1.1981 H   0  0  0  0  0  0  0  0  0  0  0  0
    3.0734    1.0521    0.8287 H   0  0  0  0  0  0  0  0  0  0  0  0
  1 21  1  0  0  0  0
  1 22  1  0  0  0  0
  1 23  1  0  0  0  0
  2  3  1  0  0  0  0
  2  8  1  0  0  0  0
  2 24  1  1  0  0  0
  2  1  1  0  0  0  0
  3  4  1  0  0  0  0
  3 25  1  0  0  0  0
  3 26  1  0  0  0  0
  4  5  1  0  0  0  0
  4 20  1  0  0  0  0
  4 27  1  6  0  0  0
  5  6  2  0  0  0  0
  5  7  1  0  0  0  0
  7  8  1  0  0  0  0
  7  9  1  0  0  0  0
  7 28  1  1  0  0  0
  8 29  1  0  0  0  0
  8 30  1  0  0  0  0
  9 10  1  0  0  0  0
  9 19  1  0  0  0  0
  9 31  1  6  0  0  0
 10 11  1  0  0  0  0
 10 32  1  0  0  0  0
 10 33  1  0  0  0  0
 11 12  1  0  0  0  0
 11 18  1  0  0  0  0
 11 34  1  0  0  0  0
 12 13  1  0  0  0  0
 12 35  1  0  0  0  0
 12 36  1  0  0  0  0
 13 14  2  0  0  0  0
 13 15  1  0  0  0  0
 15 16  1  0  0  0  0
 15 37  1  0  0  0  0
 16 17  2  0  0  0  0
 16 18  1  0  0  0  0
 18 38  1  0  0  0  0
 18 39  1  0  0  0  0
 19 40  1  0  0  0  0
 20 41  1  0  0  0  0
 20 42  1  0  0  0  0
 20 43  1  0  0  0  0
M  END
$$$$

 OpenBabel05152416213D

 75 74  0  0  0  0  0  0  0  0999 V2000
    1.8360   -1.2444    0.5371 C   0  0  0  0  0  0  0  0  0  0  0  0
    1.6914    1.7534    0.4459 C   0  0  0  0  0  0  0  0  0  0  0  0
   -0.7135    1.9063   -0.4435 C   0  0  0  0  0  0  0  0  0  0  0  0
   -1.6512    0.0328   -0.2028 C   0  0  0  0  0  0  0  0  0  0  0  0
   -1.2510   -1.4392    0.2220 C   0  0  0  0  0  0  0  0  0  0  0  0
    0.2005   -1.9721    0.4279 C   0  0  0  0  0  0  0  0  0  0  0  0
    0.3556   -2.9915    0.2996 C   0  0  0  0  0  0  0  0  0  0  0  0
   -0.3231   -3.9231    0.1209 N   0  0  0  0  0  0  0  0  0  0  0  0
    2.5493   -3.4405    0.6819 N   0  0  0  0  0  0  0  0  0  0  0  0
   -1.3621    2.9166    0.0055 O   0  0  0  0  0  0  0  0  0  0  0  0
   -2.5596    2.7995    0.4836 C   0  0  0  0  0  0  0  0  0  0  0  0
   -3.2859    2.6016   -0.7154 C   0  0  0  0  0  0  0  0  0  0  0  0
   -3.3301    1.3647   -1.0067 C   0  0  0  0  0  0  0  0  0  0  0  0
   -3.9501    0.0830    0.1548 C   0  0  0  0  0  0  0  0  0  0  0  0
   -5.1313    0.1830    0.2440 C   0  0  0  0  0  0  0  0  0  0  0  0
   -5.6603   -0.1748   -0.9884 O   0  0  0  0  0  0  0  0  0  0  0  0
   -5.3832    0.3647   -2.2268 C   0  0  0  0  0  0  0  0  0  0  0  0
   -6.2640    1.0321   -3.0056 C   0  0  0  0  0  0  0  0  0  0  0  0
   -5.8340    1.5528   -4.2436 C   0  0  0  0  0  0  0  0  0  0  0  0
   -4.5015    1.8121   -4.5328 C   0  0  0  0  0  0  0  0  0  0  0  0
   -3.6405    1.1357   -3.7611 C   0  0  0  0  0  0  0  0  0  0  0  0
   -4.1607    0.1097   -2.8229 C   0  0  0  0  0  0  0  0  0  0  0  0
   -4.0516    2.6419   -5.6815 C   0  0  0  0  0  0  0  0  0  0  0  0
   -4.9359    3.1239   -6.4811 N   0  0  0  0  0  0  0  0  0  0  0  0
   -2.6659    2.9239   -5.9164 N   0  0  0  0  0  0  0  0  0  0  0  0
    1.9134    0.1522   -0.9424 C   0  0  0  0  0  0  0  0  0  0  0  0
    1.0232   -1.4830   -1.7686 C   0  0  0  0  0  0  0  0  0  0  0  0
    1.8713   -3.0119   -1.2845 S   0  0  0  0  0  0  0  0  0  0  0  0
    1.2325   -3.3587    1.9620 O   0  0  0  0  0  0  0  0  0  0  0  0
    1.0069   -4.1323   -1.8637 O   0  0  0  0  0  0  0  0  0  0  0  0
    3.6859   -3.0575   -1.2018 O   0  0  0  0  0  0  0  0  0  0  0  0
    1.5233   -0.0870    2.0931 O   0  0  0  0  0  0  0  0  0  0  0  0
    0.3392    0.3073    0.5333 C   0  0  0  0  0  0  0  0  0  0  0  0
   -0.0907    1.7417    1.5886 C   0  0  0  0  0  0  0  0  0  0  0  0
    1.0609    3.4287   -1.0340 S   0  0  0  0  0  0  0  0  0  0  0  0
    0.4717    2.6204   -2.2889 O   0  0  0  0  0  0  0  0  0  0  0  0
    0.4647    4.2710   -0.0030 O   0  0  0  0  0  0  0  0  0  0  0  0
    2.8816    2.9328   -1.0814 O   0  0  0  0  0  0  0  0  0  0  0  0
   -0.1790    0.3029   -1.6345 O   0  0  0  0  0  0  0  0  0  0  0  0
    2.7423   -1.4006    0.0097 H   0  0  0  0  0  0  0  0  0  0  0  0
    2.1950    2.3056    0.6038 H   0  0  0  0  0  0  0  0  0  0  0  0
   -2.0066    0.1618    0.1796 H   0  0  0  0  0  0  0  0  0  0  0  0
   -1.9148   -2.0558    0.1086 H   0  0  0  0  0  0  0  0  0  0  0  0
   -1.1841   -3.7695   -0.1474 H   0  0  0  0  0  0  0  0  0  0  0  0
    3.3818   -2.6661    1.0054 H   0  0  0  0  0  0  0  0  0  0  0  0
    2.4582   -4.3904    0.2465 H   0  0  0  0  0  0  0  0  0  0  0  0
   -2.7612    2.1232    1.3544 H   0  0  0  0  0  0  0  0  0  0  0  0
   -2.6756    3.7858    0.7774 H   0  0  0  0  0  0  0  0  0  0  0  0
   -4.2744    2.5692   -0.6466 H   0  0  0  0  0  0  0  0  0  0  0  0
   -2.8160    3.0833   -1.5961 H   0  0  0  0  0  0  0  0  0  0  0  0
   -2.6003    1.2193   -1.8036 H   0  0  0  0  0  0  0  0  0  0  0  0
   -2.3387    1.0390   -1.8335 H   0  0  0  0  0  0  0  0  0  0  0  0
   -3.5686   -1.0524   -0.0864 H   0  0  0  0  0  0  0  0  0  0  0  0
   -3.3928    0.1938    1.2685 H   0  0  0  0  0  0  0  0  0  0  0  0
   -5.2879   -0.4717    1.0785 H   0  0  0  0  0  0  0  0  0  0  0  0
   -5.1430    1.2153    0.5122 H   0  0  0  0  0  0  0  0  0  0  0  0
   -7.2712    1.0377   -2.6966 H   0  0  0  0  0  0  0  0  0  0  0  0
   -6.5377    1.7635   -4.9536 H   0  0  0  0  0  0  0  0  0  0  0  0
   -2.5482    1.3149   -3.8664 H   0  0  0  0  0  0  0  0  0  0  0  0
   -3.4572   -0.5657   -2.1252 H   0  0  0  0  0  0  0  0  0  0  0  0
   -5.9458    2.9612   -6.3577 H   0  0  0  0  0  0  0  0  0  0  0  0
   -1.9151    2.5803   -5.3016 H   0  0  0  0  0  0  0  0  0  0  0  0
   -2.3686    3.4961   -6.7201 H   0  0  0  0  0  0  0  0  0  0  0  0
    1.5174    1.0142   -1.3668 H   0  0  0  0  0  0  0  0  0  0  0  0
    2.9081    0.4711   -0.8906 H   0  0  0  0  0  0  0  0  0  0  0  0
   -0.2905   -1.6319   -1.7131 H   0  0  0  0  0  0  0  0  0  0  0  0
    1.4005   -1.1269   -2.3738 H   0  0  0  0  0  0  0  0  0  0  0  0
    4.1718   -3.5900   -0.4143 H   0  0  0  0  0  0  0  0  0  0  0  0
    1.0938   -1.0614    2.4344 H   0  0  0  0  0  0  0  0  0  0  0  0
    0.0095   -0.0874    1.0183 H   0  0  0  0  0  0  0  0  0  0  0  0
    2.7334    0.3782    0.9958 H   0  0  0  0  0  0  0  0  0  0  0  0
   -0.9742    1.2732    1.6778 H   0  0  0  0  0  0  0  0  0  0  0  0
    0.4995    1.7412    2.3078 H   0  0  0  0  0  0  0  0  0  0  0  0
    3.2957    3.5890   -1.4642 H   0  0  0  0  0  0  0  0  0  0  0  0
    0.3045    0.4411   -2.6082 H   0  0  0  0  0  0  0  0  0  0  0  0
  1  2  2  0  0  0  0
  1  6  1  0  0  0  0
  1 40  1  0  0  0  0
  2  3  1  0  0  0  0
  2 41  1  0  0  0  0
  3  4  2  0  0  0  0
  3 10  1  0  0  0  0
  4  5  1  0  0  0  0
  4 42  1  0  0  0  0
  5  6  2  0  0  0  0
  5 43  1  0  0  0  0
  6  7  1  0  0  0  0
  7  8  2  0  0  0  0
  7  9  1  0  0  0  0
  8 44  1  0  0  0  0
  9 45  1  0  0  0  0
  9 46  1  0  0  0  0
 10 11  1  0  0  0  0
 11 12  1  0  0  0  0
 11 47  1  0  0  0  0
 11 48  1  0  0  0  0
 12 13  1  0  0  0  0
 12 49  1  0  0  0  0
 12 50  1  0  0  0  0
 13 14  1  0  0  0  0
 13 51  1  0  0  0  0
 13 52  1  0  0  0  0
 14 15  1  0  0  0  0
 14 53  1  0  0  0  0
 14 54  1  0  0  0  0
 15 16  1  0  0  0  0
 15 55  1  0  0  0  0
 15 56  1  0  0  0  0
 16 17  1  0  0  0  0
 17 18  2  0  0  0  0
 17 22  1  0  0  0  0
 18 19  1  0  0  0  0
 18 57  1  0  0  0  0
 19 20  2  0  0  0  0
 19 58  1  0  0  0  0
 20 21  1  0  0  0  0
 20 23  1  0  0  0  0
 21 22  2  0  0  0  0
 21 59  1  0  0  0  0
 22 60  1  0  0  0  0
 23 24  2  0  0  0  0
 23 25  1  0  0  0  0
 24 61  1  0  0  0  0
 25 62  1  0  0  0  0
 25 63  1  0  0  0  0
 26 27  1  0  0  0  0
 26 32  1  0  0  0  0
 26 64  1  0  0  0  0
 26 65  1  0  0  0  0
 27 28  1  0  0  0  0
 27 66  1  0  0  0  0
 27 67  1  0  0  0  0
 28 29  2  0  0  0  0
 28 30  2  0  0  0  0
 28 31  1  0  0  0  0
 31 68  1  0  0  0  0
 32 69  1  0  0  0  0
 33 34  1  0  0  0  0
 33 39  1  0  0  0  0
 33 70  1  0  0  0  0
 33 71  1  0  0  0  0
 34 35  1  0  0  0  0
 34 72  1  0  0  0  0
 34 73  1  0  0  0  0
 35 36  2  0  0  0  0
 35 37  2  0  0  0  0
 35 38  1  0  0  0  0
 38 74  1  0  0  0  0
 39 75  1  0  0  0  0
M  END
$$$$

 OpenBabel05152416213D

 38 39  0  0  0  0  0  0  0  0999 V2000
    0.9398    0.1285    0.0662 C   0  0  0  0  0  0  0  0  0  0  0  0
    0.4980   -0.2257   -1.3361 C   0  0  0  0  0  0  0  0  0  0  0  0
    0.0823    0.7932   -2.2731 C   0  0  0  0  0  0  0  0  0  0  0  0
   -0.3311    0.3886   -3.5607 C   0  0  0  0  0  0  0  0  0  0  0  0
   -0.3122   -0.9513   -3.9431 C   0  0  0  0  0  0  0  0  0  0  0  0
    0.0787   -1.9518   -3.0541 C   0  0  0  0  0  0  0  0  0  0  0  0
    0.4778   -1.6261   -1.7107 C   0  0  0  0  0  0  0  0  0  0  0  0
    0.8360   -2.6604   -0.7507 N   0  3  0  0  0  0  0  0  0  0  0  0
    0.4218   -3.7693   -0.8679 O   0  0  0  0  0  0  0  0  0  0  0  0
    1.5330   -2.4098    0.3331 O   0  5  0  0  0  0  0  0  0  0  0  0
   -0.0391   -3.3103   -3.7486 C   0  0  0  0  0  0  0  0  0  0  0  0
   -0.1810   -2.9230   -5.2474 C   0  0  0  0  0  0  0  0  0  0  0  0
   -0.7304   -1.4878   -5.2988 C   0  0  0  0  0  0  0  0  0  0  0  0
   -2.2571   -1.4744   -5.4985 C   0  0  0  0  0  0  0  0  0  0  0  0
   -0.0985   -0.7046   -6.4705 C   0  0  0  0  0  0  0  0  0  0  0  0
   -1.2955   -4.0766   -3.2790 C   0  0  0  0  0  0  0  0  0  0  0  0
    1.2282   -4.1972   -3.6256 C   0  0  0  0  0  0  0  0  0  0  0  0
    0.0749    2.2159   -1.9878 N   0  3  0  0  0  0  0  0  0  0  0  0
   -0.3008    2.9862   -2.8219 O   0  0  0  0  0  0  0  0  0  0  0  0
    0.5249    2.7251   -0.8664 O   0  5  0  0  0  0  0  0  0  0  0  0
    0.4225   -0.5129    0.7988 H   0  0  0  0  0  0  0  0  0  0  0  0
    0.6021    1.0696    0.4895 H   0  0  0  0  0  0  0  0  0  0  0  0
    2.0502    0.0450    0.1186 H   0  0  0  0  0  0  0  0  0  0  0  0
   -0.6494    1.1297   -4.2841 H   0  0  0  0  0  0  0  0  0  0  0  0
   -0.6713   -3.6714   -5.9103 H   0  0  0  0  0  0  0  0  0  0  0  0
    0.8577   -2.8455   -5.6480 H   0  0  0  0  0  0  0  0  0  0  0  0
   -2.6425   -0.4359   -5.5153 H   0  0  0  0  0  0  0  0  0  0  0  0
   -2.5062   -1.9634   -6.4682 H   0  0  0  0  0  0  0  0  0  0  0  0
   -2.8046   -2.0101   -4.7134 H   0  0  0  0  0  0  0  0  0  0  0  0
    1.0050   -0.6427   -6.3632 H   0  0  0  0  0  0  0  0  0  0  0  0
   -0.3364   -1.1985   -7.4386 H   0  0  0  0  0  0  0  0  0  0  0  0
   -0.5030    0.3293   -6.5054 H   0  0  0  0  0  0  0  0  0  0  0  0
   -1.3882   -5.0264   -3.8438 H   0  0  0  0  0  0  0  0  0  0  0  0
   -1.2853   -4.3232   -2.2111 H   0  0  0  0  0  0  0  0  0  0  0  0
   -2.2230   -3.5059   -3.4209 H   0  0  0  0  0  0  0  0  0  0  0  0
    2.1253   -3.6340   -3.9610 H   0  0  0  0  0  0  0  0  0  0  0  0
    1.4707   -4.5649   -2.6253 H   0  0  0  0  0  0  0  0  0  0  0  0
    1.1016   -5.1137   -4.2362 H   0  0  0  0  0  0  0  0  0  0  0  0
  1  2  1  0  0  0  0
  1 21  1  0  0  0  0
  1 22  1  0  0  0  0
  1 23  1  0  0  0  0
  2  3  2  0  0  0  0
  2  7  1  0  0  0  0
  3  4  1  0  0  0  0
  3 18  1  0  0  0  0
  4  5  2  0  0  0  0
  4 24  1  0  0  0  0
  5  6  1  0  0  0  0
  5 13  1  0  0  0  0
  6  7  2  0  0  0  0
  6 11  1  0  0  0  0
  7  8  1  0  0  0  0
  8  9  2  0  0  0  0
  8 10  1  0  0  0  0
 11 12  1  0  0  0  0
 11 16  1  0  0  0  0
 11 17  1  0  0  0  0
 12 13  1  0  0  0  0
 12 25  1  0  0  0  0
 12 26  1  0  0  0  0
 13 14  1  0  0  0  0
 13 15  1  0  0  0  0
 14 27  1  0  0  0  0
 14 28  1  0  0  0  0
 14 29  1  0  0  0  0
 15 30  1  0  0  0  0
 15 31  1  0  0  0  0
 15 32  1  0  0  0  0
 16 33  1  0  0  0  0
 16 34  1  0  0  0  0
 16 35  1  0  0  0  0
 17 36  1  0  0  0  0
 17 37  1  0  0  0  0
 17 38  1  0  0  0  0
 18 19  2  0  0  0  0
 18 20  1  0  0  0  0
M  CHG  4   8   1  10  -1  18   1  20  -1
M  END
$$$$

 OpenBabel05152416213D

 61 65  0  0  1  0  0  0  0  0999 V2000
    1.0997    0.2240    0.0730 C   0  0  0  0  0  0  0  0  0  0  0  0
    0.7530    0.0440   -1.3657 C   0  0  0  0  0  0  0  0  0  0  0  0
    0.3078   -1.0306   -1.6977 O   0  0  0  0  0  0  0  0  0  0  0  0
    1.0639    1.3740   -2.5768 S   0  0  0  0  0  0  0  0  0  0  0  0
    0.1982    0.8397   -4.1525 C   0  0  2  0  0  0  0  0  0  0  0  0
    0.8474    1.6105   -5.3227 C   0  0  0  0  0  0  0  0  0  0  0  0
    0.5183    3.0948   -5.2502 C   0  0  0  0  0  0  0  0  0  0  0  0
    1.5151    4.0107   -5.2504 C   0  0  0  0  0  0  0  0  0  0  0  0
    1.2257    5.4595   -5.2811 C   0  0  0  0  0  0  0  0  0  0  0  0
    2.1255    6.2715   -5.1331 O   0  0  0  0  0  0  0  0  0  0  0  0
   -0.1715    5.9218   -5.5646 C   0  0  0  0  0  0  0  0  0  0  0  0
   -1.1317    5.0156   -4.8116 C   0  0  0  0  0  0  0  0  0  0  0  0
   -0.9659    3.4985   -5.1843 C   0  0  2  0  0  0  0  0  0  0  0  0
   -1.6387    2.6468   -4.0376 C   0  0  2  0  0  0  0  0  0  0  0  0
   -1.3461    1.1060   -4.1888 C   0  0  2  0  0  0  0  0  0  0  0  0
   -2.0634    0.3159   -3.0774 C   0  0  2  0  0  0  0  0  0  0  0  0
   -2.0627   -1.2287   -3.1568 C   0  0  0  0  0  0  0  0  0  0  0  0
   -3.1801   -1.6550   -2.1703 C   0  0  0  0  0  0  0  0  0  0  0  0
   -3.9151   -0.3344   -1.7773 C   0  0  2  0  0  0  0  0  0  0  0  0
   -3.5653    0.6142   -2.9627 C   0  0  1  0  0  0  0  0  0  0  0  0
   -3.7725    2.1343   -2.7277 C   0  0  0  0  0  0  0  0  0  0  0  0
   -3.1601    2.9517   -3.8761 C   0  0  0  0  0  0  0  0  0  0  0  0
   -4.4029    0.1819   -4.2225 C   0  0  0  0  0  0  0  0  0  0  0  0
   -3.4352    0.1226   -0.3611 C   0  0  0  0  0  0  0  0  0  0  0  0
   -4.3969   -0.5801    0.5870 C   0  0  0  0  0  0  0  0  0  0  0  0
   -5.5758   -0.6739   -0.3059 C   0  0  0  0  0  0  0  0  0  0  0  0
   -6.6871   -1.0349    0.0677 O   0  0  0  0  0  0  0  0  0  0  0  0
   -5.2730   -0.5279   -1.6037 O   0  0  0  0  0  0  0  0  0  0  0  0
   -1.6024    3.2275   -6.5764 C   0  0  0  0  0  0  0  0  0  0  0  0
    0.7537   -0.6547    0.6665 H   0  0  0  0  0  0  0  0  0  0  0  0
    0.6168    1.1336    0.4833 H   0  0  0  0  0  0  0  0  0  0  0  0
    2.2018    0.2889    0.1522 H   0  0  0  0  0  0  0  0  0  0  0  0
    0.4038   -0.2389   -4.3292 H   0  0  0  0  0  0  0  0  0  0  0  0
    0.4513    1.2182   -6.2831 H   0  0  0  0  0  0  0  0  0  0  0  0
    1.9451    1.4330   -5.3347 H   0  0  0  0  0  0  0  0  0  0  0  0
    2.5536    3.6938   -5.2519 H   0  0  0  0  0  0  0  0  0  0  0  0
   -0.3058    6.9819   -5.2538 H   0  0  0  0  0  0  0  0  0  0  0  0
   -0.3701    5.8525   -6.6528 H   0  0  0  0  0  0  0  0  0  0  0  0
   -0.9059    5.1573   -3.7312 H   0  0  0  0  0  0  0  0  0  0  0  0
   -2.1749    5.3555   -4.9889 H   0  0  0  0  0  0  0  0  0  0  0  0
   -1.1687    2.9524   -3.0761 H   0  0  0  0  0  0  0  0  0  0  0  0
   -1.7606    0.7557   -5.1575 H   0  0  0  0  0  0  0  0  0  0  0  0
   -1.6066    0.6518   -2.1271 H   0  0  0  0  0  0  0  0  0  0  0  0
   -2.3583   -1.4961   -4.1865 H   0  0  0  0  0  0  0  0  0  0  0  0
   -1.1576   -1.8492   -3.1005 H   0  0  0  0  0  0  0  0  0  0  0  0
   -3.8395   -2.3646   -2.7117 H   0  0  0  0  0  0  0  0  0  0  0  0
   -2.7837   -2.1736   -1.2692 H   0  0  0  0  0  0  0  0  0  0  0  0
   -3.2488    2.4814   -1.8155 H   0  0  0  0  0  0  0  0  0  0  0  0
   -4.8534    2.3685   -2.6187 H   0  0  0  0  0  0  0  0  0  0  0  0
   -3.3186    4.0221   -3.6349 H   0  0  0  0  0  0  0  0  0  0  0  0
   -3.7057    2.7601   -4.8137 H   0  0  0  0  0  0  0  0  0  0  0  0
   -4.3092   -0.8837   -4.4931 H   0  0  0  0  0  0  0  0  0  0  0  0
   -5.4818    0.3301   -4.0199 H   0  0  0  0  0  0  0  0  0  0  0  0
   -4.1387    0.7327   -5.1407 H   0  0  0  0  0  0  0  0  0  0  0  0
   -2.3578    0.0085   -0.1054 H   0  0  0  0  0  0  0  0  0  0  0  0
   -3.6919    1.1910   -0.2289 H   0  0  0  0  0  0  0  0  0  0  0  0
   -4.0765   -1.6115    0.8417 H   0  0  0  0  0  0  0  0  0  0  0  0
   -4.5583    0.0289    1.5037 H   0  0  0  0  0  0  0  0  0  0  0  0
   -1.5398    2.1627   -6.8731 H   0  0  0  0  0  0  0  0  0  0  0  0
   -2.6714    3.5185   -6.6004 H   0  0  0  0  0  0  0  0  0  0  0  0
   -1.0914    3.8124   -7.3679 H   0  0  0  0  0  0  0  0  0  0  0  0
  1  2  1  0  0  0  0
  1 30  1  0  0  0  0
  1 31  1  0  0  0  0
  1 32  1  0  0  0  0
  2  3  2  0  0  0  0
  2  4  1  0  0  0  0
  4  5  1  0  0  0  0
  5  6  1  0  0  0  0
  5 15  1  0  0  0  0
  5 33  1  6  0  0  0
  6  7  1  0  0  0  0
  6 34  1  0  0  0  0
  6 35  1  0  0  0  0
  7  8  2  0  0  0  0
  7 13  1  0  0  0  0
  8  9  1  0  0  0  0
  8 36  1  0  0  0  0
  9 10  2  0  0  0  0
  9 11  1  0  0  0  0
 11 12  1  0  0  0  0
 11 37  1  0  0  0  0
 11 38  1  0  0  0  0
 12 13  1  0  0  0  0
 12 39  1  0  0  0  0
 12 40  1  0  0  0  0
 13 14  1  0  0  0  0
 13 29  1  6  0  0  0
 14 15  1  0  0  0  0
 14 22  1  0  0  0  0
 14 41  1  1  0  0  0
 15 16  1  0  0  0  0
 15 42  1  6  0  0  0
 16 17  1  0  0  0  0
 16 20  1  0  0  0  0
 16 43  1  1  0  0  0
 17 18  1  0  0  0  0
 17 44  1  0  0  0  0
 17 45  1  0  0  0  0
 18 19  1  0  0  0  0
 18 46  1  0  0  0  0
 18 47  1  0  0  0  0
 19 20  1  0  0  0  0
 19 24  1  0  0  0  0
 19 28  1  1  0  0  0
 20 21  1  0  0  0  0
 20 23  1  6  0  0  0
 21 22  1  0  0  0  0
 21 48  1  0  0  0  0
 21 49  1  0  0  0  0
 22 50  1  0  0  0  0
 22 51  1  0  0  0  0
 23 52  1  0  0  0  0
 23 53  1  0  0  0  0
 23 54  1  0  0  0  0
 24 25  1  0  0  0  0
 24 55  1  0  0  0  0
 24 56  1  0  0  0  0
 25 26  1  0  0  0  0
 25 57  1  0  0  0  0
 25 58  1  0  0  0  0
 26 27  2  0  0  0  0
 26 28  1  0  0  0  0
 29 59  1  0  0  0  0
 29 60  1  0  0  0  0
 29 61  1  0  0  0  0
M  END
$$$$

 OpenBabel05152416213D

 11 11  0  0  0  0  0  0  0  0999 V2000
    0.7287   -0.9356   -0.0004 C   0  0  0  0  0  0  0  0  0  0  0  0
    1.1594    0.3235    0.0014 C   0  0  0  0  0  0  0  0  0  0  0  0
    0.0000    1.2742    0.0025 C   0  0  0  0  0  0  0  0  0  0  0  0
   -1.1594    0.3235    0.0013 C   0  0  0  0  0  0  0  0  0  0  0  0
   -0.7287   -0.9356   -0.0006 C   0  0  0  0  0  0  0  0  0  0  0  0
   -1.7516   -2.3660   -0.0030 Cl  0  0  0  0  0  0  0  0  0  0  0  0
   -2.8511    0.8086    0.0023 Cl  0  0  0  0  0  0  0  0  0  0  0  0
    0.0001    2.2866    1.4693 Cl  0  0  0  0  0  0  0  0  0  0  0  0
   -0.0001    2.2903   -1.4617 Cl  0  0  0  0  0  0  0  0  0  0  0  0
    2.8511    0.8086    0.0026 Cl  0  0  0  0  0  0  0  0  0  0  0  0
    1.7516   -2.3661   -0.0017 Cl  0  0  0  0  0  0  0  0  0  0  0  0
  1  2  2  0  0  0  0
  1  5  1  0  0  0  0
  1 11  1  0  0  0  0
  2  3  1  0  0  0  0
  2 10  1  0  0  0  0
  3  4  1  0  0  0  0
  3  8  1  0  0  0  0
  3  9  1  0  0  0  0
  4  5  2  0  0  0  0
  4  7  1  0  0  0  0
  5  6  1  0  0  0  0
M  END
$$$$

 OpenBabel05152416213D

 38 41  0  0  0  0  0  0  0  0999 V2000
    0.6447   -1.2480    0.2362 C   0  0  0  0  0  0  0  0  0  0  0  0
   -0.7884   -1.1970   -0.3185 C   0  0  0  0  0  0  0  0  0  0  0  0
   -1.4140    0.0275    0.1480 N   0  0  0  0  0  0  0  0  0  0  0  0
   -0.7254    1.2441   -0.2608 C   0  0  0  0  0  0  0  0  0  0  0  0
    0.7318    1.1790    0.2494 C   0  0  0  0  0  0  0  0  0  0  0  0
    1.3964   -0.0582   -0.1978 N   0  0  0  0  0  0  0  0  0  0  0  0
   -2.5911    0.0904    0.9837 C   0  0  0  0  0  0  0  0  0  0  0  0
   -3.5977    0.7830    0.5349 N   0  0  0  0  0  0  0  0  0  0  0  0
   -4.8491    1.0459    1.1682 C   0  0  0  0  0  0  0  0  0  0  0  0
   -6.0196    1.0723    0.3871 C   0  0  0  0  0  0  0  0  0  0  0  0
   -7.2626    1.3530    0.9720 C   0  0  0  0  0  0  0  0  0  0  0  0
   -7.3459    1.6396    2.3350 C   0  0  0  0  0  0  0  0  0  0  0  0
   -6.1927    1.6252    3.1154 C   0  0  0  0  0  0  0  0  0  0  0  0
   -4.9548    1.3132    2.5433 C   0  0  0  0  0  0  0  0  0  0  0  0
   -3.8958    1.2368    3.3577 O   0  0  0  0  0  0  0  0  0  0  0  0
   -3.2332    0.0729    3.4605 C   0  0  0  0  0  0  0  0  0  0  0  0
   -2.6158   -0.5642    2.3513 C   0  0  0  0  0  0  0  0  0  0  0  0
   -1.9912   -1.8071    2.6011 C   0  0  0  0  0  0  0  0  0  0  0  0
   -1.9955   -2.3935    3.8631 C   0  0  0  0  0  0  0  0  0  0  0  0
   -2.5871   -1.7394    4.9340 C   0  0  0  0  0  0  0  0  0  0  0  0
   -3.1950   -0.5068    4.7340 C   0  0  0  0  0  0  0  0  0  0  0  0
   -1.2539   -3.9676    4.0853 Cl  0  0  0  0  0  0  0  0  0  0  0  0
    0.6287   -1.2871    1.3488 H   0  0  0  0  0  0  0  0  0  0  0  0
    1.1572   -2.1634   -0.1273 H   0  0  0  0  0  0  0  0  0  0  0  0
   -1.3826   -2.0953   -0.1047 H   0  0  0  0  0  0  0  0  0  0  0  0
   -0.7413   -1.1748   -1.4277 H   0  0  0  0  0  0  0  0  0  0  0  0
   -0.7139    1.3035   -1.3713 H   0  0  0  0  0  0  0  0  0  0  0  0
   -1.2182    2.1577    0.1364 H   0  0  0  0  0  0  0  0  0  0  0  0
    0.7436    1.2117    1.3612 H   0  0  0  0  0  0  0  0  0  0  0  0
    1.3052    2.0585   -0.1176 H   0  0  0  0  0  0  0  0  0  0  0  0
    1.4693   -0.0576   -1.2429 H   0  0  0  0  0  0  0  0  0  0  0  0
   -5.9738    0.8559   -0.6725 H   0  0  0  0  0  0  0  0  0  0  0  0
   -8.1632    1.3519    0.3714 H   0  0  0  0  0  0  0  0  0  0  0  0
   -8.3021    1.8619    2.7923 H   0  0  0  0  0  0  0  0  0  0  0  0
   -6.2602    1.8296    4.1774 H   0  0  0  0  0  0  0  0  0  0  0  0
   -1.5152   -2.3848    1.8531 H   0  0  0  0  0  0  0  0  0  0  0  0
   -2.5850   -2.1899    5.9165 H   0  0  0  0  0  0  0  0  0  0  0  0
   -3.6659   -0.0038    5.5697 H   0  0  0  0  0  0  0  0  0  0  0  0
  1  2  1  0  0  0  0
  1  6  1  0  0  0  0
  1 23  1  0  0  0  0
  1 24  1  0  0  0  0
  2  3  1  0  0  0  0
  2 25  1  0  0  0  0
  2 26  1  0  0  0  0
  3  4  1  0  0  0  0
  3  7  1  0  0  0  0
  4  5  1  0  0  0  0
  4 27  1  0  0  0  0
  4 28  1  0  0  0  0
  5  6  1  0  0  0  0
  5 29  1  0  0  0  0
  5 30  1  0  0  0  0
  6 31  1  0  0  0  0
  7  8  2  0  0  0  0
  7 17  1  0  0  0  0
  8  9  1  0  0  0  0
  9 10  2  0  0  0  0
  9 14  1  0  0  0  0
 10 11  1  0  0  0  0
 10 32  1  0  0  0  0
 11 12  2  0  0  0  0
 11 33  1  0  0  0  0
 12 13  1  0  0  0  0
 12 34  1  0  0  0  0
 13 14  2  0  0  0  0
 13 35  1  0  0  0  0
 14 15  1  0  0  0  0
 15 16  1  0  0  0  0
 16 17  2  0  0  0  0
 16 21  1  0  0  0  0
 17 18  1  0  0  0  0
 18 19  2  0  0  0  0
 18 36  1  0  0  0  0
 19 20  1  0  0  0  0
 19 22  1  0  0  0  0
 20 21  2  0  0  0  0
 20 37  1  0  0  0  0
 21 38  1  0  0  0  0
M  END
$$$$

 OpenBabel05152416213D

 88 91  0  0  1  0  0  0  0  0999 V2000
   -2.5647    0.7957   -1.6735 C   0  0  0  0  0  0  0  0  0  0  0  0
   -2.6677    0.5672   -0.1446 C   0  0  2  0  0  0  0  0  0  0  0  0
   -1.9807    1.7190    0.6258 C   0  0  0  0  0  0  0  0  0  0  0  0
   -0.4686    1.7514    0.3391 C   0  0  0  0  0  0  0  0  0  0  0  0
    0.2071    0.4181    0.6388 C   0  0  1  0  0  0  0  0  0  0  0  0
   -0.5404   -0.7867   -0.0424 C   0  0  2  0  0  0  0  0  0  0  0  0
   -2.0347   -0.7355    0.3181 C   0  0  2  0  0  0  0  0  0  0  0  0
   -2.9613   -1.8312   -0.2060 C   0  0  0  0  0  0  0  0  0  0  0  0
   -4.3648   -1.1967   -0.0654 C   0  0  0  0  0  0  0  0  0  0  0  0
   -4.1233    0.3002    0.2713 C   0  0  2  0  0  0  0  0  0  0  0  0
   -5.0738    1.1854   -0.2671 O   0  0  0  0  0  0  0  0  0  0  0  0
    0.1235   -2.0661    0.3948 C   0  0  1  0  0  0  0  0  0  0  0  0
    1.5581   -2.0251   -0.2665 C   0  0  0  0  0  0  0  0  0  0  0  0
    2.3321   -0.7541   -0.1375 C   0  0  0  0  0  0  0  0  0  0  0  0
    1.6885    0.4071    0.2863 C   0  0  0  0  0  0  0  0  0  0  0  0
    2.4960    1.5744    0.3787 C   0  0  0  0  0  0  0  0  0  0  0  0
    3.8353    1.5278    0.0733 C   0  0  0  0  0  0  0  0  0  0  0  0
    4.4957    0.3541   -0.2798 C   0  0  0  0  0  0  0  0  0  0  0  0
    3.7082   -0.8181   -0.3671 C   0  0  0  0  0  0  0  0  0  0  0  0
    5.7795    0.3018   -0.5427 O   0  0  0  0  0  0  0  0  0  0  0  0
    0.0064   -2.2161    1.9527 C   0  0  0  0  0  0  0  0  0  0  0  0
    0.3655   -3.5944    2.3775 C   0  0  0  0  0  0  0  0  0  0  0  0
    1.8308   -3.7615    1.9613 C   0  0  0  0  0  0  0  0  0  0  0  0
    2.8648   -2.5064    2.3658 C   0  0  0  0  0  0  0  0  0  0  0  0
    3.1182   -2.2720    3.8725 C   0  0  0  0  0  0  0  0  0  0  0  0
    3.7071   -3.5476    4.2623 C   0  0  0  0  0  0  0  0  0  0  0  0
    5.0626   -4.1415    3.9408 C   0  0  0  0  0  0  0  0  0  0  0  0
    6.0078   -3.3869    4.7369 C   0  0  0  0  0  0  0  0  0  0  0  0
    5.7714   -3.6556    6.2622 C   0  0  0  0  0  0  0  0  0  0  0  0
    6.2110   -5.4296    6.7964 S   0  0  0  0  0  0  0  0  0  0  0  0
    5.7660   -5.2799    8.2577 O   0  0  0  0  0  0  0  0  0  0  0  0
    4.8878   -6.7195    6.3709 C   0  0  0  0  0  0  0  0  0  0  0  0
    3.4291   -6.5951    6.9649 C   0  0  0  0  0  0  0  0  0  0  0  0
    2.6545   -5.4616    6.4525 C   0  0  0  0  0  0  0  0  0  0  0  0
    2.2474   -5.7452    4.9814 C   0  0  0  0  0  0  0  0  0  0  0  0
    1.4887   -6.7736    4.2340 C   0  0  0  0  0  0  0  0  0  0  0  0
    0.1588   -6.5799    4.4623 F   0  0  0  0  0  0  0  0  0  0  0  0
    1.7165   -6.6417    2.8542 F   0  0  0  0  0  0  0  0  0  0  0  0
    1.9701   -8.0109    4.5843 F   0  0  0  0  0  0  0  0  0  0  0  0
    1.4987   -4.6064    4.7154 F   0  0  0  0  0  0  0  0  0  0  0  0
    3.4000   -6.0765    4.3129 F   0  0  0  0  0  0  0  0  0  0  0  0
   -2.9810   -0.0556   -2.2404 H   0  0  0  0  0  0  0  0  0  0  0  0
   -3.1191    1.7143   -1.9413 H   0  0  0  0  0  0  0  0  0  0  0  0
   -1.5288    0.9392   -2.0200 H   0  0  0  0  0  0  0  0  0  0  0  0
   -2.1138    1.5590    1.7237 H   0  0  0  0  0  0  0  0  0  0  0  0
   -2.4212    2.6946    0.3576 H   0  0  0  0  0  0  0  0  0  0  0  0
   -0.0315    2.5253    1.0011 H   0  0  0  0  0  0  0  0  0  0  0  0
   -0.2546    2.0115   -0.7092 H   0  0  0  0  0  0  0  0  0  0  0  0
    0.1042    0.3438    1.7422 H   0  0  0  0  0  0  0  0  0  0  0  0
   -0.4353   -0.7453   -1.1477 H   0  0  0  0  0  0  0  0  0  0  0  0
   -2.1550   -0.7500    1.4152 H   0  0  0  0  0  0  0  0  0  0  0  0
   -2.7442   -2.0184   -1.2815 H   0  0  0  0  0  0  0  0  0  0  0  0
   -2.8543   -2.8049    0.3216 H   0  0  0  0  0  0  0  0  0  0  0  0
   -4.9094   -1.3324   -1.0220 H   0  0  0  0  0  0  0  0  0  0  0  0
   -4.9396   -1.6665    0.7608 H   0  0  0  0  0  0  0  0  0  0  0  0
   -4.1678    0.3868    1.3830 H   0  0  0  0  0  0  0  0  0  0  0  0
   -5.1148    1.0309   -1.2469 H   0  0  0  0  0  0  0  0  0  0  0  0
   -0.4141   -2.9475   -0.0256 H   0  0  0  0  0  0  0  0  0  0  0  0
    1.5171   -2.4005   -1.2950 H   0  0  0  0  0  0  0  0  0  0  0  0
    2.3371   -2.6739    0.0110 H   0  0  0  0  0  0  0  0  0  0  0  0
    2.0647    2.5057    0.6650 H   0  0  0  0  0  0  0  0  0  0  0  0
    4.4213    2.4457    0.1167 H   0  0  0  0  0  0  0  0  0  0  0  0
    4.2143   -1.7515   -0.6063 H   0  0  0  0  0  0  0  0  0  0  0  0
    6.3181    1.1263   -0.5479 H   0  0  0  0  0  0  0  0  0  0  0  0
    0.6108   -1.4886    2.5176 H   0  0  0  0  0  0  0  0  0  0  0  0
   -1.0022   -2.0742    2.3626 H   0  0  0  0  0  0  0  0  0  0  0  0
    0.0789   -3.6562    3.4386 H   0  0  0  0  0  0  0  0  0  0  0  0
   -0.2941   -4.3527    1.8847 H   0  0  0  0  0  0  0  0  0  0  0  0
    2.2880   -4.7445    2.0069 H   0  0  0  0  0  0  0  0  0  0  0  0
    1.7069   -4.1509    0.9337 H   0  0  0  0  0  0  0  0  0  0  0  0
    3.8423   -2.7670    1.9154 H   0  0  0  0  0  0  0  0  0  0  0  0
    2.6343   -1.4956    2.0591 H   0  0  0  0  0  0  0  0  0  0  0  0
    3.8071   -1.5357    4.3463 H   0  0  0  0  0  0  0  0  0  0  0  0
    2.1638   -2.0036    4.4352 H   0  0  0  0  0  0  0  0  0  0  0  0
    3.4303   -3.5096    5.2687 H   0  0  0  0  0  0  0  0  0  0  0  0
    3.2216   -4.2102    3.6720 H   0  0  0  0  0  0  0  0  0  0  0  0
    5.2976   -5.1732    4.2478 H   0  0  0  0  0  0  0  0  0  0  0  0
    5.1672   -4.2739    2.8431 H   0  0  0  0  0  0  0  0  0  0  0  0
    6.9938   -3.7351    4.4201 H   0  0  0  0  0  0  0  0  0  0  0  0
    5.8533   -2.3344    4.4285 H   0  0  0  0  0  0  0  0  0  0  0  0
    6.4704   -2.9678    6.7473 H   0  0  0  0  0  0  0  0  0  0  0  0
    4.8278   -3.2346    6.6705 H   0  0  0  0  0  0  0  0  0  0  0  0
    5.0040   -6.9843    5.3054 H   0  0  0  0  0  0  0  0  0  0  0  0
    5.2334   -7.6968    6.7335 H   0  0  0  0  0  0  0  0  0  0  0  0
    2.7828   -7.4558    6.7273 H   0  0  0  0  0  0  0  0  0  0  0  0
    3.4691   -6.4553    8.0500 H   0  0  0  0  0  0  0  0  0  0  0  0
    1.7642   -5.0754    6.9702 H   0  0  0  0  0  0  0  0  0  0  0  0
    3.3268   -4.6472    6.7817 H   0  0  0  0  0  0  0  0  0  0  0  0
  1 42  1  0  0  0  0
  1 43  1  0  0  0  0
  1 44  1  0  0  0  0
  2  1  1  6  0  0  0
  2  3  1  0  0  0  0
  2  7  1  0  0  0  0
  2 10  1  0  0  0  0
  3  4  1  0  0  0  0
  3 45  1  0  0  0  0
  3 46  1  0  0  0  0
  4  5  1  0  0  0  0
  4 47  1  0  0  0  0
  4 48  1  0  0  0  0
  5  6  1  0  0  0  0
  5 15  1  0  0  0  0
  5 49  1  1  0  0  0
  6  7  1  0  0  0  0
  6 12  1  0  0  0  0
  6 50  1  6  0  0  0
  7  8  1  0  0  0  0
  7 51  1  1  0  0  0
  8  9  1  0  0  0  0
  8 52  1  0  0  0  0
  8 53  1  0  0  0  0
  9 10  1  0  0  0  0
  9 54  1  0  0  0  0
  9 55  1  0  0  0  0
 10 11  1  0  0  0  0
 10 56  1  1  0  0  0
 11 57  1  0  0  0  0
 12 13  1  0  0  0  0
 12 58  1  6  0  0  0
 12 21  1  0  0  0  0
 13 14  1  0  0  0  0
 13 59  1  0  0  0  0
 13 60  1  0  0  0  0
 14 15  2  0  0  0  0
 14 19  1  0  0  0  0
 15 16  1  0  0  0  0
 16 17  2  0  0  0  0
 16 61  1  0  0  0  0
 17 18  1  0  0  0  0
 17 62  1  0  0  0  0
 18 19  2  0  0  0  0
 18 20  1  0  0  0  0
 19 63  1  0  0  0  0
 20 64  1  0  0  0  0
 21 22  1  0  0  0  0
 21 65  1  0  0  0  0
 21 66  1  0  0  0  0
 22 23  1  0  0  0  0
 22 67  1  0  0  0  0
 22 68  1  0  0  0  0
 23 24  1  0  0  0  0
 23 69  1  0  0  0  0
 23 70  1  0  0  0  0
 24 25  1  0  0  0  0
 24 71  1  0  0  0  0
 24 72  1  0  0  0  0
 25 26  1  0  0  0  0
 25 73  1  0  0  0  0
 25 74  1  0  0  0  0
 26 27  1  0  0  0  0
 26 75  1  0  0  0  0
 26 76  1  0  0  0  0
 27 28  1  0  0  0  0
 27 77  1  0  0  0  0
 27 78  1  0  0  0  0
 28 29  1  0  0  0  0
 28 79  1  0  0  0  0
 28 80  1  0  0  0  0
 29 30  1  0  0  0  0
 29 81  1  0  0  0  0
 29 82  1  0  0  0  0
 30 31  2  0  0  0  0
 30 32  1  0  0  0  0
 32 33  1  0  0  0  0
 32 83  1  0  0  0  0
 32 84  1  0  0  0  0
 33 34  1  0  0  0  0
 33 85  1  0  0  0  0
 33 86  1  0  0  0  0
 34 35  1  0  0  0  0
 34 87  1  0  0  0  0
 34 88  1  0  0  0  0
 35 36  1  0  0  0  0
 35 40  1  0  0  0  0
 35 41  1  0  0  0  0
 36 37  1  0  0  0  0
 36 38  1  0  0  0  0
 36 39  1  0  0  0  0
M  END
$$$$

 OpenBabel05152416213D

 74 77  0  0  0  0  0  0  0  0999 V2000
    1.0644    0.1670    0.0322 C   0  0  0  0  0  0  0  0  0  0  0  0
    0.5883   -0.1812    1.4317 C   0  0  0  0  0  0  0  0  0  0  0  0
    0.5956   -1.4631    1.9147 N   0  3  0  0  0  0  0  0  0  0  0  0
    0.0433   -1.6912    3.1908 C   0  0  0  0  0  0  0  0  0  0  0  0
   -0.2002   -2.9357    3.6823 C   0  0  0  0  0  0  0  0  0  0  0  0
   -0.6085   -3.3204    4.9248 C   0  0  0  0  0  0  0  0  0  0  0  0
   -0.9423   -2.3365    5.8031 C   0  0  0  0  0  0  0  0  0  0  0  0
   -0.8528   -1.0035    5.3768 C   0  0  0  0  0  0  0  0  0  0  0  0
   -0.3693   -0.6655    4.0583 C   0  0  0  0  0  0  0  0  0  0  0  0
   -0.3372    0.6268    3.5479 C   0  0  0  0  0  0  0  0  0  0  0  0
    0.1037    0.8575    2.2375 C   0  0  0  0  0  0  0  0  0  0  0  0
   -0.8117    1.7140    4.3127 N   0  0  0  0  0  0  0  0  0  0  0  0
    1.1818   -2.5396    1.0118 C   0  0  0  0  0  0  0  0  0  0  0  0
    2.5317   -3.1411    1.5047 C   0  0  0  0  0  0  0  0  0  0  0  0
    2.3284   -3.9812    2.7350 C   0  0  0  0  0  0  0  0  0  0  0  0
    1.2819   -5.1395    2.3763 C   0  0  0  0  0  0  0  0  0  0  0  0
    1.8043   -6.1324    1.4093 C   0  0  0  0  0  0  0  0  0  0  0  0
    3.0067   -6.7461    2.0476 C   0  0  0  0  0  0  0  0  0  0  0  0
    2.5716   -7.3148    3.3887 C   0  0  0  0  0  0  0  0  0  0  0  0
    1.4145   -8.4031    3.1980 C   0  0  0  0  0  0  0  0  0  0  0  0
    1.9989   -9.5376    2.4447 C   0  0  0  0  0  0  0  0  0  0  0  0
    3.2558  -10.0157    3.2075 C   0  0  0  0  0  0  0  0  0  0  0  0
    2.9856  -10.5994    4.5738 N   0  3  0  0  0  0  0  0  0  0  0  0
    2.5598   -9.8539    5.7302 C   0  0  0  0  0  0  0  0  0  0  0  0
    2.3451  -10.5017    6.9248 C   0  0  0  0  0  0  0  0  0  0  0  0
    2.5534  -11.8220    7.0935 C   0  0  0  0  0  0  0  0  0  0  0  0
    2.9692  -12.5971    5.9953 C   0  0  0  0  0  0  0  0  0  0  0  0
    3.1379  -13.9770    6.1330 C   0  0  0  0  0  0  0  0  0  0  0  0
    3.4644  -14.7699    5.0468 C   0  0  0  0  0  0  0  0  0  0  0  0
    3.7090  -14.1953    3.8188 C   0  0  0  0  0  0  0  0  0  0  0  0
    3.6063  -12.8306    3.6537 C   0  0  0  0  0  0  0  0  0  0  0  0
    3.1849  -11.9619    4.7279 C   0  0  0  0  0  0  0  0  0  0  0  0
    2.3261  -12.3320    8.3991 N   0  0  0  0  0  0  0  0  0  0  0  0
    2.3202   -8.3524    5.9708 C   0  0  0  0  0  0  0  0  0  0  0  0
    0.8336    1.2122   -0.2373 H   0  0  0  0  0  0  0  0  0  0  0  0
    0.5466   -0.4570   -0.7344 H   0  0  0  0  0  0  0  0  0  0  0  0
    2.1634    0.0083   -0.0397 H   0  0  0  0  0  0  0  0  0  0  0  0
   -0.1106   -3.6142    3.0504 H   0  0  0  0  0  0  0  0  0  0  0  0
   -0.6792   -4.3813    5.1595 H   0  0  0  0  0  0  0  0  0  0  0  0
   -1.3174   -2.6320    6.7725 H   0  0  0  0  0  0  0  0  0  0  0  0
   -1.1847   -0.2873    6.0979 H   0  0  0  0  0  0  0  0  0  0  0  0
    0.0832    1.8577    1.8396 H   0  0  0  0  0  0  0  0  0  0  0  0
   -1.1686    1.5936    5.2648 H   0  0  0  0  0  0  0  0  0  0  0  0
   -0.8575    2.6478    3.8959 H   0  0  0  0  0  0  0  0  0  0  0  0
    0.4131   -3.2758    0.7410 H   0  0  0  0  0  0  0  0  0  0  0  0
    1.4829   -2.1893    0.0149 H   0  0  0  0  0  0  0  0  0  0  0  0
    2.9826   -3.7939    0.7241 H   0  0  0  0  0  0  0  0  0  0  0  0
    3.2806   -2.3419    1.6839 H   0  0  0  0  0  0  0  0  0  0  0  0
    3.2699   -4.3453    3.1910 H   0  0  0  0  0  0  0  0  0  0  0  0
    2.0976   -3.2651    3.5392 H   0  0  0  0  0  0  0  0  0  0  0  0
    0.8442   -5.5349    3.3228 H   0  0  0  0  0  0  0  0  0  0  0  0
    0.3433   -4.9491    1.8331 H   0  0  0  0  0  0  0  0  0  0  0  0
    1.0007   -6.8645    1.1841 H   0  0  0  0  0  0  0  0  0  0  0  0
    2.0102   -5.6626    0.4405 H   0  0  0  0  0  0  0  0  0  0  0  0
    3.4465   -7.4908    1.3807 H   0  0  0  0  0  0  0  0  0  0  0  0
    3.8215   -6.0185    2.1974 H   0  0  0  0  0  0  0  0  0  0  0  0
    3.5210   -7.5925    3.8347 H   0  0  0  0  0  0  0  0  0  0  0  0
    2.3101   -6.5425    4.1372 H   0  0  0  0  0  0  0  0  0  0  0  0
    0.9459   -8.9496    4.0267 H   0  0  0  0  0  0  0  0  0  0  0  0
    0.4748   -7.9856    2.7904 H   0  0  0  0  0  0  0  0  0  0  0  0
    1.2540  -10.3512    2.3159 H   0  0  0  0  0  0  0  0  0  0  0  0
    2.2473   -9.2030    1.4169 H   0  0  0  0  0  0  0  0  0  0  0  0
    3.6826  -10.6649    2.4579 H   0  0  0  0  0  0  0  0  0  0  0  0
    4.1170   -9.3396    3.2570 H   0  0  0  0  0  0  0  0  0  0  0  0
    2.0031   -9.9500    7.7964 H   0  0  0  0  0  0  0  0  0  0  0  0
    2.9913  -14.4850    7.0647 H   0  0  0  0  0  0  0  0  0  0  0  0
    3.5246  -15.8374    5.1641 H   0  0  0  0  0  0  0  0  0  0  0  0
    3.9761  -14.8145    2.9721 H   0  0  0  0  0  0  0  0  0  0  0  0
    3.8489  -12.5547    2.6487 H   0  0  0  0  0  0  0  0  0  0  0  0
    2.5005  -13.2978    8.6724 H   0  0  0  0  0  0  0  0  0  0  0  0
    2.0044  -11.6916    9.1444 H   0  0  0  0  0  0  0  0  0  0  0  0
    3.2614   -7.8060    5.8405 H   0  0  0  0  0  0  0  0  0  0  0  0
    1.4059   -7.8771    5.5754 H   0  0  0  0  0  0  0  0  0  0  0  0
    2.0324   -8.0674    6.9991 H   0  0  0  0  0  0  0  0  0  0  0  0
  1  2  1  0  0  0  0
  1 35  1  0  0  0  0
  1 36  1  0  0  0  0
  1 37  1  0  0  0  0
  2  3  2  0  0  0  0
  2 11  1  0  0  0  0
  3  4  1  0  0  0  0
  3 13  1  0  0  0  0
  4  5  2  0  0  0  0
  4  9  1  0  0  0  0
  5  6  1  0  0  0  0
  5 38  1  0  0  0  0
  6  7  2  0  0  0  0
  6 39  1  0  0  0  0
  7  8  1  0  0  0  0
  7 40  1  0  0  0  0
  8  9  2  0  0  0  0
  8 41  1  0  0  0  0
  9 10  1  0  0  0  0
 10 11  2  0  0  0  0
 10 12  1  0  0  0  0
 11 42  1  0  0  0  0
 12 43  1  0  0  0  0
 12 44  1  0  0  0  0
 13 14  1  0  0  0  0
 13 45  1  0  0  0  0
 13 46  1  0  0  0  0
 14 15  1  0  0  0  0
 14 47  1  0  0  0  0
 14 48  1  0  0  0  0
 15 16  1  0  0  0  0
 15 49  1  0  0  0  0
 15 50  1  0  0  0  0
 16 17  1  0  0  0  0
 16 51  1  0  0  0  0
 16 52  1  0  0  0  0
 17 18  1  0  0  0  0
 17 53  1  0  0  0  0
 17 54  1  0  0  0  0
 18 19  1  0  0  0  0
 18 55  1  0  0  0  0
 18 56  1  0  0  0  0
 19 20  1  0  0  0  0
 19 57  1  0  0  0  0
 19 58  1  0  0  0  0
 20 21  1  0  0  0  0
 20 59  1  0  0  0  0
 20 60  1  0  0  0  0
 21 22  1  0  0  0  0
 21 61  1  0  0  0  0
 21 62  1  0  0  0  0
 22 23  1  0  0  0  0
 22 63  1  0  0  0  0
 22 64  1  0  0  0  0
 23 24  2  0  0  0  0
 23 32  1  0  0  0  0
 24 25  1  0  0  0  0
 24 34  1  0  0  0  0
 25 26  2  0  0  0  0
 25 65  1  0  0  0  0
 26 27  1  0  0  0  0
 26 33  1  0  0  0  0
 27 28  2  0  0  0  0
 27 32  1  0  0  0  0
 28 29  1  0  0  0  0
 28 66  1  0  0  0  0
 29 30  2  0  0  0  0
 29 67  1  0  0  0  0
 30 31  1  0  0  0  0
 30 68  1  0  0  0  0
 31 32  2  0  0  0  0
 31 69  1  0  0  0  0
 33 70  1  0  0  0  0
 33 71  1  0  0  0  0
 34 72  1  0  0  0  0
 34 73  1  0  0  0  0
 34 74  1  0  0  0  0
M  CHG  2   3   1  23   1
M  END
$$$$

 OpenBabel05152416213D

 67 71  0  0  1  0  0  0  0  0999 V2000
   -3.5863    1.3352   -1.3173 C   0  0  0  0  0  0  0  0  0  0  0  0
   -2.4905    0.3598   -1.7408 C   0  0  1  0  0  0  0  0  0  0  0  0
   -2.9125   -1.1896   -1.6556 C   0  0  2  0  0  0  0  0  0  0  0  0
   -1.9496   -2.1879   -2.3942 C   0  0  2  0  0  0  0  0  0  0  0  0
   -1.3195   -1.6343   -3.6225 C   0  0  0  0  0  0  0  0  0  0  0  0
   -0.7492   -0.2405   -3.1525 C   0  0  1  0  0  0  0  0  0  0  0  0
   -1.8323    0.6738   -2.9412 O   0  0  0  0  0  0  0  0  0  0  0  0
    0.2813   -0.2672   -2.0888 O   0  0  0  0  0  0  0  0  0  0  0  0
    0.1079   -0.6227   -0.6544 C   0  0  1  0  0  0  0  0  0  0  0  0
   -0.1854   -2.0561   -0.1690 C   0  0  0  0  0  0  0  0  0  0  0  0
    0.9609   -2.9431   -0.6964 C   0  0  1  0  0  0  0  0  0  0  0  0
    1.9405   -2.7429    0.3933 C   0  0  0  0  0  0  0  0  0  0  0  0
    2.1676   -1.2380    0.6432 C   0  0  0  0  0  0  0  0  0  0  0  0
    1.3207   -0.2275    0.0817 C   0  0  0  0  0  0  0  0  0  0  0  0
    1.4897    1.1307    0.3529 C   0  0  0  0  0  0  0  0  0  0  0  0
    2.5221    1.5134    1.2146 C   0  0  0  0  0  0  0  0  0  0  0  0
    3.3590    0.4897    1.7835 C   0  0  0  0  0  0  0  0  0  0  0  0
    3.1570   -0.8656    1.4957 C   0  0  0  0  0  0  0  0  0  0  0  0
    3.9261   -1.8273    2.0757 O   0  0  0  0  0  0  0  0  0  0  0  0
    4.4394    0.8581    2.6870 C   0  0  0  0  0  0  0  0  0  0  0  0
    5.1652   -0.0113    3.1738 O   0  0  0  0  0  0  0  0  0  0  0  0
    4.6946    2.2531    3.0022 C   0  0  0  0  0  0  0  0  0  0  0  0
    3.8764    3.2807    2.4716 C   0  0  0  0  0  0  0  0  0  0  0  0
    2.7647    2.9246    1.5848 C   0  0  0  0  0  0  0  0  0  0  0  0
    2.0493    3.8230    1.1465 O   0  0  0  0  0  0  0  0  0  0  0  0
    4.1564    4.6191    2.7971 C   0  0  0  0  0  0  0  0  0  0  0  0
    5.2424    4.9056    3.6328 C   0  0  0  0  0  0  0  0  0  0  0  0
    6.0379    3.8835    4.1410 C   0  0  0  0  0  0  0  0  0  0  0  0
    5.7631    2.5679    3.8288 C   0  0  0  0  0  0  0  0  0  0  0  0
    3.3725    5.6145    2.2906 O   0  0  0  0  0  0  0  0  0  0  0  0
    3.5469    6.9554    2.5329 C   0  0  0  0  0  0  0  0  0  0  0  0
    0.5881    2.0025   -0.2088 O   0  0  0  0  0  0  0  0  0  0  0  0
    0.5292   -4.3899   -0.9180 C   0  0  0  0  0  0  0  0  0  0  0  0
    0.7885   -4.9478   -1.9774 O   0  0  0  0  0  0  0  0  0  0  0  0
   -0.2771   -5.1360    0.0997 C   0  0  0  0  0  0  0  0  0  0  0  0
    1.6166   -2.4382   -1.8640 O   0  0  0  0  0  0  0  0  0  0  0  0
   -2.4098   -3.5774   -2.3257 N   0  0  0  0  0  0  0  0  0  0  0  0
   -4.1457   -1.4802   -2.2480 O   0  0  0  0  0  0  0  0  0  0  0  0
   -3.2131    2.3864   -1.3015 H   0  0  0  0  0  0  0  0  0  0  0  0
   -3.8911    1.0715   -0.2708 H   0  0  0  0  0  0  0  0  0  0  0  0
   -4.4509    1.3138   -1.9853 H   0  0  0  0  0  0  0  0  0  0  0  0
   -1.8497    0.7966   -1.0120 H   0  0  0  0  0  0  0  0  0  0  0  0
   -3.0027   -1.4347   -0.5661 H   0  0  0  0  0  0  0  0  0  0  0  0
   -0.9923   -2.2885   -2.1109 H   0  0  0  0  0  0  0  0  0  0  0  0
   -0.4908   -2.2926   -4.0264 H   0  0  0  0  0  0  0  0  0  0  0  0
   -2.0730   -1.5686   -4.4148 H   0  0  0  0  0  0  0  0  0  0  0  0
   -0.2215    0.1226   -4.0638 H   0  0  0  0  0  0  0  0  0  0  0  0
   -0.5881   -0.0924   -0.0451 H   0  0  0  0  0  0  0  0  0  0  0  0
   -1.1428   -2.5537   -0.2278 H   0  0  0  0  0  0  0  0  0  0  0  0
   -0.4333   -2.0444    0.9159 H   0  0  0  0  0  0  0  0  0  0  0  0
    1.5397   -3.1932    1.3303 H   0  0  0  0  0  0  0  0  0  0  0  0
    2.8584   -3.2640    0.0639 H   0  0  0  0  0  0  0  0  0  0  0  0
    3.8109   -2.7779    1.9504 H   0  0  0  0  0  0  0  0  0  0  0  0
    5.4872    5.9174    3.8967 H   0  0  0  0  0  0  0  0  0  0  0  0
    6.8714    4.1133    4.7786 H   0  0  0  0  0  0  0  0  0  0  0  0
    6.3926    1.7819    4.2300 H   0  0  0  0  0  0  0  0  0  0  0  0
    3.4556    7.1473    3.6226 H   0  0  0  0  0  0  0  0  0  0  0  0
    4.5465    7.2691    2.1651 H   0  0  0  0  0  0  0  0  0  0  0  0
    2.7685    7.5363    1.9988 H   0  0  0  0  0  0  0  0  0  0  0  0
    0.4832    2.9523   -0.1013 H   0  0  0  0  0  0  0  0  0  0  0  0
    0.3042   -5.2119    1.0315 H   0  0  0  0  0  0  0  0  0  0  0  0
   -1.2340   -4.6289    0.3306 H   0  0  0  0  0  0  0  0  0  0  0  0
   -0.5426   -6.1400   -0.2901 H   0  0  0  0  0  0  0  0  0  0  0  0
    1.2109   -2.7607   -2.7047 H   0  0  0  0  0  0  0  0  0  0  0  0
   -2.6110   -3.7753   -1.3089 H   0  0  0  0  0  0  0  0  0  0  0  0
   -1.6009   -4.2140   -2.5270 H   0  0  0  0  0  0  0  0  0  0  0  0
   -4.7056   -0.6863   -2.2975 H   0  0  0  0  0  0  0  0  0  0  0  0
  1 39  1  0  0  0  0
  1 40  1  0  0  0  0
  1 41  1  0  0  0  0
  2  3  1  0  0  0  0
  2  7  1  0  0  0  0
  2 42  1  1  0  0  0
  2  1  1  0  0  0  0
  3  4  1  0  0  0  0
  3 43  1  1  0  0  0
  3 38  1  0  0  0  0
  4  5  1  0  0  0  0
  4 44  1  1  0  0  0
  4 37  1  0  0  0  0
  5  6  1  0  0  0  0
  5 45  1  0  0  0  0
  5 46  1  0  0  0  0
  6  7  1  0  0  0  0
  6  8  1  0  0  0  0
  6 47  1  6  0  0  0
  9 10  1  0  0  0  0
  9 14  1  0  0  0  0
  9 48  1  1  0  0  0
  9  8  1  0  0  0  0
 10 11  1  0  0  0  0
 10 49  1  0  0  0  0
 10 50  1  0  0  0  0
 11 12  1  0  0  0  0
 11 33  1  6  0  0  0
 11 36  1  0  0  0  0
 12 13  1  0  0  0  0
 12 51  1  0  0  0  0
 12 52  1  0  0  0  0
 13 14  2  0  0  0  0
 13 18  1  0  0  0  0
 14 15  1  0  0  0  0
 15 16  2  0  0  0  0
 15 32  1  0  0  0  0
 16 17  1  0  0  0  0
 16 24  1  0  0  0  0
 17 18  2  0  0  0  0
 17 20  1  0  0  0  0
 18 19  1  0  0  0  0
 19 53  1  0  0  0  0
 20 21  2  0  0  0  0
 20 22  1  0  0  0  0
 22 23  2  0  0  0  0
 22 29  1  0  0  0  0
 23 24  1  0  0  0  0
 23 26  1  0  0  0  0
 24 25  2  0  0  0  0
 26 27  2  0  0  0  0
 26 30  1  0  0  0  0
 27 28  1  0  0  0  0
 27 54  1  0  0  0  0
 28 29  2  0  0  0  0
 28 55  1  0  0  0  0
 29 56  1  0  0  0  0
 30 31  1  0  0  0  0
 31 57  1  0  0  0  0
 31 58  1  0  0  0  0
 31 59  1  0  0  0  0
 32 60  1  0  0  0  0
 33 34  2  0  0  0  0
 33 35  1  0  0  0  0
 35 61  1  0  0  0  0
 35 62  1  0  0  0  0
 35 63  1  0  0  0  0
 36 64  1  0  0  0  0
 37 65  1  0  0  0  0
 37 66  1  0  0  0  0
 38 67  1  0  0  0  0
M  END
$$$$

 OpenBabel05152416213D

 45 49  0  0  0  0  0  0  0  0999 V2000
    0.7731    1.4221   -0.3757 C   0  0  0  0  0  0  0  0  0  0  0  0
   -0.7766    1.3744   -0.3169 C   0  0  0  0  0  0  0  0  0  0  0  0
   -1.2636    0.0047   -0.0150 N   0  0  0  0  0  0  0  0  0  0  0  0
   -0.7640   -0.9403   -1.0385 C   0  0  0  0  0  0  0  0  0  0  0  0
    0.7852   -0.9666   -1.0574 C   0  0  0  0  0  0  0  0  0  0  0  0
    1.3289    0.0316   -0.0096 C   0  0  0  0  0  0  0  0  0  0  0  0
    0.7964   -0.3842    1.3823 C   0  0  0  0  0  0  0  0  0  0  0  0
   -0.7696   -0.4058    1.3215 C   0  0  0  0  0  0  0  0  0  0  0  0
    1.3303    0.5374    2.5181 C   0  0  0  0  0  0  0  0  0  0  0  0
    0.7936    0.0836    3.7943 N   0  0  0  0  0  0  0  0  0  0  0  0
    1.0937   -1.2149    4.2867 C   0  0  0  0  0  0  0  0  0  0  0  0
    2.4022   -1.7276    4.2046 C   0  0  0  0  0  0  0  0  0  0  0  0
    2.7036   -2.9753    4.7479 C   0  0  0  0  0  0  0  0  0  0  0  0
    1.6999   -3.7322    5.3562 C   0  0  0  0  0  0  0  0  0  0  0  0
    0.3956   -3.2375    5.4281 C   0  0  0  0  0  0  0  0  0  0  0  0
    0.0915   -1.9782    4.9094 C   0  0  0  0  0  0  0  0  0  0  0  0
   -1.6058   -1.3951    4.9757 S   0  0  0  0  0  0  0  0  0  0  0  0
   -1.2110    0.3433    5.1794 C   0  0  0  0  0  0  0  0  0  0  0  0
   -2.0726    1.1475    5.9290 C   0  0  0  0  0  0  0  0  0  0  0  0
   -1.8106    2.5102    6.0806 C   0  0  0  0  0  0  0  0  0  0  0  0
   -0.6886    3.0789    5.4745 C   0  0  0  0  0  0  0  0  0  0  0  0
    0.1634    2.2872    4.7020 C   0  0  0  0  0  0  0  0  0  0  0  0
   -0.0918    0.9114    4.5458 C   0  0  0  0  0  0  0  0  0  0  0  0
    1.1130    1.6960   -1.3958 H   0  0  0  0  0  0  0  0  0  0  0  0
    1.1603    2.2192    0.2906 H   0  0  0  0  0  0  0  0  0  0  0  0
   -1.1460    2.0758    0.4644 H   0  0  0  0  0  0  0  0  0  0  0  0
   -1.1956    1.7286   -1.2831 H   0  0  0  0  0  0  0  0  0  0  0  0
   -1.1595   -1.9610   -0.8381 H   0  0  0  0  0  0  0  0  0  0  0  0
   -1.1524   -0.6463   -2.0389 H   0  0  0  0  0  0  0  0  0  0  0  0
    1.1501   -0.6859   -2.0699 H   0  0  0  0  0  0  0  0  0  0  0  0
    1.1500   -1.9946   -0.8426 H   0  0  0  0  0  0  0  0  0  0  0  0
    2.4398    0.0251   -0.0236 H   0  0  0  0  0  0  0  0  0  0  0  0
    1.1546   -1.4213    1.5781 H   0  0  0  0  0  0  0  0  0  0  0  0
   -1.2195    0.2605    2.0878 H   0  0  0  0  0  0  0  0  0  0  0  0
   -1.1436   -1.4266    1.5661 H   0  0  0  0  0  0  0  0  0  0  0  0
    2.4380    0.5496    2.5279 H   0  0  0  0  0  0  0  0  0  0  0  0
    0.9833    1.5671    2.3204 H   0  0  0  0  0  0  0  0  0  0  0  0
    3.2009   -1.1504    3.7566 H   0  0  0  0  0  0  0  0  0  0  0  0
    3.7172   -3.3518    4.7022 H   0  0  0  0  0  0  0  0  0  0  0  0
    1.9321   -4.7025    5.7710 H   0  0  0  0  0  0  0  0  0  0  0  0
   -0.3825   -3.8332    5.8859 H   0  0  0  0  0  0  0  0  0  0  0  0
   -2.9491    0.7134    6.3914 H   0  0  0  0  0  0  0  0  0  0  0  0
   -2.4774    3.1249    6.6694 H   0  0  0  0  0  0  0  0  0  0  0  0
   -0.4774    4.1322    5.6060 H   0  0  0  0  0  0  0  0  0  0  0  0
    1.0394    2.7444    4.2568 H   0  0  0  0  0  0  0  0  0  0  0  0
  1  2  1  0  0  0  0
  1  6  1  0  0  0  0
  1 24  1  0  0  0  0
  1 25  1  0  0  0  0
  2  3  1  0  0  0  0
  2 26  1  0  0  0  0
  2 27  1  0  0  0  0
  3  4  1  0  0  0  0
  3  8  1  0  0  0  0
  4  5  1  0  0  0  0
  4 28  1  0  0  0  0
  4 29  1  0  0  0  0
  5  6  1  0  0  0  0
  5 30  1  0  0  0  0
  5 31  1  0  0  0  0
  6  7  1  0  0  0  0
  6 32  1  0  0  0  0
  7  8  1  0  0  0  0
  7  9  1  0  0  0  0
  7 33  1  0  0  0  0
  8 34  1  0  0  0  0
  8 35  1  0  0  0  0
  9 10  1  0  0  0  0
  9 36  1  0  0  0  0
  9 37  1  0  0  0  0
 10 11  1  0  0  0  0
 10 23  1  0  0  0  0
 11 12  2  0  0  0  0
 11 16  1  0  0  0  0
 12 13  1  0  0  0  0
 12 38  1  0  0  0  0
 13 14  2  0  0  0  0
 13 39  1  0  0  0  0
 14 15  1  0  0  0  0
 14 40  1  0  0  0  0
 15 16  2  0  0  0  0
 15 41  1  0  0  0  0
 16 17  1  0  0  0  0
 17 18  1  0  0  0  0
 18 19  2  0  0  0  0
 18 23  1  0  0  0  0
 19 20  1  0  0  0  0
 19 42  1  0  0  0  0
 20 21  2  0  0  0  0
 20 43  1  0  0  0  0
 21 22  1  0  0  0  0
 21 44  1  0  0  0  0
 22 23  2  0  0  0  0
 22 45  1  0  0  0  0
M  END
$$$$

 OpenBabel05152416213D

 33 34  0  0  0  0  0  0  0  0999 V2000
    1.1122    0.0578   -0.0952 C   0  0  0  0  0  0  0  0  0  0  0  0
    0.5371    1.4794    0.1808 C   0  0  0  0  0  0  0  0  0  0  0  0
    1.0741    2.3630   -0.9762 C   0  0  0  0  0  0  0  0  0  0  0  0
   -1.0143    1.4680    0.1775 C   0  0  0  0  0  0  0  0  0  0  0  0
   -1.7516    2.6740    0.2157 C   0  0  0  0  0  0  0  0  0  0  0  0
   -3.1483    2.6727    0.2672 C   0  0  0  0  0  0  0  0  0  0  0  0
   -3.8555    1.4650    0.2931 C   0  0  0  0  0  0  0  0  0  0  0  0
   -3.1479    0.2539    0.2372 C   0  0  0  0  0  0  0  0  0  0  0  0
   -1.7558    0.2603    0.1728 C   0  0  0  0  0  0  0  0  0  0  0  0
   -4.0329   -1.4482    0.2629 Br  0  0  0  0  0  0  0  0  0  0  0  0
   -5.2014    1.4885    0.3769 O   0  0  0  0  0  0  0  0  0  0  0  0
   -4.0789    4.3457    0.3178 Br  0  0  0  0  0  0  0  0  0  0  0  0
    1.0030    2.0142    1.5619 C   0  0  0  0  0  0  0  0  0  0  0  0
    1.4575    1.1490    2.5892 C   0  0  0  0  0  0  0  0  0  0  0  0
    1.7762    1.6317    3.8595 C   0  0  0  0  0  0  0  0  0  0  0  0
    1.6652    2.9955    4.1479 C   0  0  0  0  0  0  0  0  0  0  0  0
    1.2554    3.8801    3.1364 C   0  0  0  0  0  0  0  0  0  0  0  0
    0.9282    3.3921    1.8706 C   0  0  0  0  0  0  0  0  0  0  0  0
    1.1037    5.7681    3.4374 Br  0  0  0  0  0  0  0  0  0  0  0  0
    1.9434    3.4290    5.3943 O   0  0  0  0  0  0  0  0  0  0  0  0
    2.3284    0.3903    5.2104 Br  0  0  0  0  0  0  0  0  0  0  0  0
    0.7737   -0.3083   -1.0894 H   0  0  0  0  0  0  0  0  0  0  0  0
    0.7883   -0.6956    0.6484 H   0  0  0  0  0  0  0  0  0  0  0  0
    2.2226    0.0725   -0.0910 H   0  0  0  0  0  0  0  0  0  0  0  0
    0.7254    1.9739   -1.9569 H   0  0  0  0  0  0  0  0  0  0  0  0
    0.7274    3.4124   -0.9185 H   0  0  0  0  0  0  0  0  0  0  0  0
    2.1854    2.3803   -0.9721 H   0  0  0  0  0  0  0  0  0  0  0  0
   -1.2608    3.6316    0.2048 H   0  0  0  0  0  0  0  0  0  0  0  0
   -1.2836   -0.7062    0.1428 H   0  0  0  0  0  0  0  0  0  0  0  0
   -5.7405    0.6881    0.4368 H   0  0  0  0  0  0  0  0  0  0  0  0
    1.5450    0.0850    2.4512 H   0  0  0  0  0  0  0  0  0  0  0  0
    0.6119    4.1159    1.1408 H   0  0  0  0  0  0  0  0  0  0  0  0
    1.8344    4.3487    5.6709 H   0  0  0  0  0  0  0  0  0  0  0  0
  1  2  1  0  0  0  0
  1 22  1  0  0  0  0
  1 23  1  0  0  0  0
  1 24  1  0  0  0  0
  2  3  1  0  0  0  0
  2  4  1  0  0  0  0
  2 13  1  0  0  0  0
  3 25  1  0  0  0  0
  3 26  1  0  0  0  0
  3 27  1  0  0  0  0
  4  5  2  0  0  0  0
  4  9  1  0  0  0  0
  5  6  1  0  0  0  0
  5 28  1  0  0  0  0
  6  7  2  0  0  0  0
  6 12  1  0  0  0  0
  7  8  1  0  0  0  0
  7 11  1  0  0  0  0
  8  9  2  0  0  0  0
  8 10  1  0  0  0  0
  9 29  1  0  0  0  0
 11 30  1  0  0  0  0
 13 14  2  0  0  0  0
 13 18  1  0  0  0  0
 14 15  1  0  0  0  0
 14 31  1  0  0  0  0
 15 16  2  0  0  0  0
 15 21  1  0  0  0  0
 16 17  1  0  0  0  0
 16 20  1  0  0  0  0
 17 18  2  0  0  0  0
 17 19  1  0  0  0  0
 18 32  1  0  0  0  0
 20 33  1  0  0  0  0
M  END
$$$$

 OpenBabel05152416213D

 52 54  0  0  0  0  0  0  0  0999 V2000
    1.5310    0.7336   -0.6853 C   0  0  0  0  0  0  0  0  0  0  0  0
    0.9573    1.2784   -1.3523 O   0  0  0  0  0  0  0  0  0  0  0  0
    1.3680    1.8014   -2.4407 C   0  0  0  0  0  0  0  0  0  0  0  0
    0.8713    2.9849   -1.3805 C   0  0  0  0  0  0  0  0  0  0  0  0
    0.9471    2.7544    0.2997 O   0  0  0  0  0  0  0  0  0  0  0  0
    0.9673    1.5112    1.4498 C   0  0  0  0  0  0  0  0  0  0  0  0
    1.2022   -0.4914    1.2739 C   0  0  0  0  0  0  0  0  0  0  0  0
    0.6426   -1.1001    2.1343 C   0  0  0  0  0  0  0  0  0  0  0  0
    0.2911   -0.3891    3.1982 C   0  0  0  0  0  0  0  0  0  0  0  0
    0.2458    1.0638    3.4113 C   0  0  0  0  0  0  0  0  0  0  0  0
    0.4947    2.0228    2.4832 C   0  0  0  0  0  0  0  0  0  0  0  0
   -0.0530    1.4799    4.6417 C   0  0  0  0  0  0  0  0  0  0  0  0
   -0.1768    0.5425    5.6198 N   0  0  0  0  0  0  0  0  0  0  0  0
   -0.0679   -0.7896    5.3651 C   0  0  0  0  0  0  0  0  0  0  0  0
    0.1038   -1.2299    4.1580 N   0  0  0  0  0  0  0  0  0  0  0  0
   -0.1890    2.8611    4.9071 N   0  0  0  0  0  0  0  0  0  0  0  0
   -0.4469    3.2742    6.1770 C   0  0  0  0  0  0  0  0  0  0  0  0
    0.4385    2.9284    7.1950 C   0  0  0  0  0  0  0  0  0  0  0  0
    0.1778    3.3758    8.4728 C   0  0  0  0  0  0  0  0  0  0  0  0
   -0.9590    4.1631    8.6956 C   0  0  0  0  0  0  0  0  0  0  0  0
   -1.8488    4.4953    7.6007 C   0  0  0  0  0  0  0  0  0  0  0  0
   -1.5737    4.0516    6.3722 C   0  0  0  0  0  0  0  0  0  0  0  0
   -2.9201    5.3969    7.9247 C   0  0  0  0  0  0  0  0  0  0  0  0
   -3.8358    6.1396    8.0768 C   0  0  0  0  0  0  0  0  0  0  0  0
    1.6274   -1.4192   -0.2721 O   0  0  0  0  0  0  0  0  0  0  0  0
    1.3522   -0.9046   -2.0319 C   0  0  0  0  0  0  0  0  0  0  0  0
   -0.7927    0.4680   -2.2899 C   0  0  0  0  0  0  0  0  0  0  0  0
   -1.2889    1.5427   -1.2132 O   0  0  0  0  0  0  0  0  0  0  0  0
   -1.5991    1.1245    0.1091 C   0  0  0  0  0  0  0  0  0  0  0  0
    0.3376   -0.0839   -0.5575 H   0  0  0  0  0  0  0  0  0  0  0  0
    2.0568    1.2891   -0.3768 H   0  0  0  0  0  0  0  0  0  0  0  0
    2.5829    0.4545   -0.0988 H   0  0  0  0  0  0  0  0  0  0  0  0
    2.2402    1.4615   -3.0817 H   0  0  0  0  0  0  0  0  0  0  0  0
    0.9315    1.1546   -3.4172 H   0  0  0  0  0  0  0  0  0  0  0  0
    1.2972    3.5854   -2.1816 H   0  0  0  0  0  0  0  0  0  0  0  0
   -0.1354    3.3818   -1.6727 H   0  0  0  0  0  0  0  0  0  0  0  0
    0.5767   -2.1479    1.9215 H   0  0  0  0  0  0  0  0  0  0  0  0
    0.3858    3.1569    2.4085 H   0  0  0  0  0  0  0  0  0  0  0  0
   -0.1109   -1.5601    6.0656 H   0  0  0  0  0  0  0  0  0  0  0  0
   -0.2470    3.5989    4.1944 H   0  0  0  0  0  0  0  0  0  0  0  0
    1.3308    2.3409    6.9750 H   0  0  0  0  0  0  0  0  0  0  0  0
    0.8660    3.1334    9.2698 H   0  0  0  0  0  0  0  0  0  0  0  0
   -1.1213    4.5237    9.7112 H   0  0  0  0  0  0  0  0  0  0  0  0
   -2.2457    4.2879    5.5695 H   0  0  0  0  0  0  0  0  0  0  0  0
   -4.6600    6.8081    8.2137 H   0  0  0  0  0  0  0  0  0  0  0  0
    2.7185   -0.1394   -2.0348 H   0  0  0  0  0  0  0  0  0  0  0  0
    1.7057   -1.1476   -3.0985 H   0  0  0  0  0  0  0  0  0  0  0  0
   -0.9082    1.6166   -3.0099 H   0  0  0  0  0  0  0  0  0  0  0  0
   -1.7787    0.2300   -2.5461 H   0  0  0  0  0  0  0  0  0  0  0  0
   -1.8738    0.1180    0.0520 H   0  0  0  0  0  0  0  0  0  0  0  0
   -0.7723    0.8092    0.4574 H   0  0  0  0  0  0  0  0  0  0  0  0
   -1.5266    1.7191    1.0888 H   0  0  0  0  0  0  0  0  0  0  0  0
  1  2  1  0  0  0  0
  1 30  1  0  0  0  0
  1 31  1  0  0  0  0
  1 32  1  0  0  0  0
  2  3  1  0  0  0  0
  3  4  1  0  0  0  0
  3 33  1  0  0  0  0
  3 34  1  0  0  0  0
  4  5  1  0  0  0  0
  4 35  1  0  0  0  0
  4 36  1  0  0  0  0
  5  6  1  0  0  0  0
  6  7  2  0  0  0  0
  6 11  1  0  0  0  0
  7  8  1  0  0  0  0
  7 25  1  0  0  0  0
  8  9  2  0  0  0  0
  8 37  1  0  0  0  0
  9 10  1  0  0  0  0
  9 15  1  0  0  0  0
 10 11  2  0  0  0  0
 10 12  1  0  0  0  0
 11 38  1  0  0  0  0
 12 13  2  0  0  0  0
 12 16  1  0  0  0  0
 13 14  1  0  0  0  0
 14 15  2  0  0  0  0
 14 39  1  0  0  0  0
 16 17  1  0  0  0  0
 16 40  1  0  0  0  0
 17 18  2  0  0  0  0
 17 22  1  0  0  0  0
 18 19  1  0  0  0  0
 18 41  1  0  0  0  0
 19 20  2  0  0  0  0
 19 42  1  0  0  0  0
 20 21  1  0  0  0  0
 20 43  1  0  0  0  0
 21 22  2  0  0  0  0
 21 23  1  0  0  0  0
 22 44  1  0  0  0  0
 23 24  3  0  0  0  0
 24 45  1  0  0  0  0
 25 26  1  0  0  0  0
 26 27  1  0  0  0  0
 26 46  1  0  0  0  0
 26 47  1  0  0  0  0
 27 28  1  0  0  0  0
 27 48  1  0  0  0  0
 27 49  1  0  0  0  0
 28 29  1  0  0  0  0
 29 50  1  0  0  0  0
 29 51  1  0  0  0  0
 29 52  1  0  0  0  0
M  END
$$$$

 OpenBabel05152416213D

 36 39  0  0  0  0  0  0  0  0999 V2000
    0.9205    0.0062   -0.0746 C   0  0  0  0  0  0  0  0  0  0  0  0
    0.5022   -0.9621   -1.1915 C   0  0  0  0  0  0  0  0  0  0  0  0
   -0.1435   -0.5392   -2.4043 C   0  0  0  0  0  0  0  0  0  0  0  0
   -0.4755    0.8217   -2.5814 C   0  0  0  0  0  0  0  0  0  0  0  0
   -1.0740    1.2915   -3.7261 C   0  0  0  0  0  0  0  0  0  0  0  0
   -1.3792    0.4390   -4.7746 C   0  0  0  0  0  0  0  0  0  0  0  0
   -1.9787    0.9987   -5.9233 C   0  0  0  0  0  0  0  0  0  0  0  0
   -2.3073    0.2057   -7.0154 C   0  0  0  0  0  0  0  0  0  0  0  0
   -2.0505   -1.1346   -6.9696 C   0  0  0  0  0  0  0  0  0  0  0  0
   -1.4710   -1.6935   -5.8525 C   0  0  0  0  0  0  0  0  0  0  0  0
   -1.0908   -0.9533   -4.6857 C   0  0  0  0  0  0  0  0  0  0  0  0
   -0.4575   -1.4852   -3.4708 C   0  0  0  0  0  0  0  0  0  0  0  0
   -0.1019   -2.8699   -3.2334 C   0  0  0  0  0  0  0  0  0  0  0  0
    0.5105   -3.2704   -2.0086 C   0  0  0  0  0  0  0  0  0  0  0  0
    0.8512   -4.6376   -1.7693 C   0  0  0  0  0  0  0  0  0  0  0  0
    1.4411   -5.0597   -0.6021 C   0  0  0  0  0  0  0  0  0  0  0  0
    1.7249   -4.1443    0.3885 C   0  0  0  0  0  0  0  0  0  0  0  0
    1.4220   -2.7982    0.2012 C   0  0  0  0  0  0  0  0  0  0  0  0
    0.8100   -2.3282   -0.9969 C   0  0  0  0  0  0  0  0  0  0  0  0
   -0.2997   -4.0442   -4.1788 C   0  0  0  0  0  0  0  0  0  0  0  0
    0.4658   -0.2910    0.8936 H   0  0  0  0  0  0  0  0  0  0  0  0
    0.6840    1.0710   -0.1825 H   0  0  0  0  0  0  0  0  0  0  0  0
    2.0291   -0.0329    0.0153 H   0  0  0  0  0  0  0  0  0  0  0  0
   -0.2932    1.5867   -1.8490 H   0  0  0  0  0  0  0  0  0  0  0  0
   -1.2997    2.3497   -3.7962 H   0  0  0  0  0  0  0  0  0  0  0  0
   -2.1932    2.0541   -5.9849 H   0  0  0  0  0  0  0  0  0  0  0  0
   -2.7618    0.6106   -7.9050 H   0  0  0  0  0  0  0  0  0  0  0  0
   -2.2997   -1.7746   -7.8127 H   0  0  0  0  0  0  0  0  0  0  0  0
   -1.3893   -2.6859   -6.0578 H   0  0  0  0  0  0  0  0  0  0  0  0
    0.6753   -5.4363   -2.4729 H   0  0  0  0  0  0  0  0  0  0  0  0
    1.6729   -6.1095   -0.4816 H   0  0  0  0  0  0  0  0  0  0  0  0
    2.1838   -4.4854    1.3037 H   0  0  0  0  0  0  0  0  0  0  0  0
    1.6769   -2.1457    1.0219 H   0  0  0  0  0  0  0  0  0  0  0  0
    0.7046   -4.4558   -4.4050 H   0  0  0  0  0  0  0  0  0  0  0  0
   -0.9887   -4.7596   -3.6854 H   0  0  0  0  0  0  0  0  0  0  0  0
   -0.6851   -4.1009   -5.1458 H   0  0  0  0  0  0  0  0  0  0  0  0
  1  2  1  0  0  0  0
  1 21  1  0  0  0  0
  1 22  1  0  0  0  0
  1 23  1  0  0  0  0
  2  3  2  0  0  0  0
  2 19  1  0  0  0  0
  3  4  1  0  0  0  0
  3 12  1  0  0  0  0
  4  5  2  0  0  0  0
  4 24  1  0  0  0  0
  5  6  1  0  0  0  0
  5 25  1  0  0  0  0
  6  7  2  0  0  0  0
  6 11  1  0  0  0  0
  7  8  1  0  0  0  0
  7 26  1  0  0  0  0
  8  9  2  0  0  0  0
  8 27  1  0  0  0  0
  9 10  1  0  0  0  0
  9 28  1  0  0  0  0
 10 11  2  0  0  0  0
 10 29  1  0  0  0  0
 11 12  1  0  0  0  0
 12 13  2  0  0  0  0
 13 14  1  0  0  0  0
 13 20  1  0  0  0  0
 14 15  2  0  0  0  0
 14 19  1  0  0  0  0
 15 16  1  0  0  0  0
 15 30  1  0  0  0  0
 16 17  2  0  0  0  0
 16 31  1  0  0  0  0
 17 18  1  0  0  0  0
 17 32  1  0  0  0  0
 18 19  2  0  0  0  0
 18 33  1  0  0  0  0
 20 34  1  0  0  0  0
 20 35  1  0  0  0  0
 20 36  1  0  0  0  0
M  END
$$$$

 OpenBabel05152416213D

 34 34  0  0  0  0  0  0  0  0999 V2000
    0.8579    0.0264    0.1384 C   0  0  0  0  0  0  0  0  0  0  0  0
    0.4317   -0.7538   -1.1089 C   0  0  0  0  0  0  0  0  0  0  0  0
    0.8708   -2.1138   -1.1589 O   0  0  0  0  0  0  0  0  0  0  0  0
    2.6008   -2.1138   -1.1589 P   0  0  0  0  0  0  0  0  0  0  0  0
    2.5288   -3.5211   -0.5066 O   0  0  0  0  0  0  0  0  0  0  0  0
    2.5959   -2.5399   -2.9132 O   0  0  0  0  0  0  0  0  0  0  0  0
    1.3317   -2.5704   -3.5777 C   0  0  0  0  0  0  0  0  0  0  0  0
    0.5072   -3.8232   -3.2125 C   0  0  0  0  0  0  0  0  0  0  0  0
    4.3308   -2.1138   -1.1589 O   0  0  0  0  0  0  0  0  0  0  0  0
    5.0557   -3.1891   -1.7133 C   0  0  0  0  0  0  0  0  0  0  0  0
    4.4589   -4.3470   -2.2035 C   0  0  0  0  0  0  0  0  0  0  0  0
    5.2638   -5.8397   -2.6995 Cl  0  0  0  0  0  0  0  0  0  0  0  0
    6.5362   -3.1478   -1.7420 C   0  0  0  0  0  0  0  0  0  0  0  0
    7.2883   -3.4885   -2.9043 C   0  0  0  0  0  0  0  0  0  0  0  0
    8.6775   -3.5235   -2.8570 C   0  0  0  0  0  0  0  0  0  0  0  0
    9.3510   -3.1964   -1.6791 C   0  0  0  0  0  0  0  0  0  0  0  0
    8.6260   -2.8156   -0.5470 C   0  0  0  0  0  0  0  0  0  0  0  0
    7.2307   -2.7855   -0.5735 C   0  0  0  0  0  0  0  0  0  0  0  0
   11.1013   -3.2429   -1.6436 Cl  0  0  0  0  0  0  0  0  0  0  0  0
    6.5583   -3.7979   -4.4903 Cl  0  0  0  0  0  0  0  0  0  0  0  0
    0.4965   -0.4737    1.0567 H   0  0  0  0  0  0  0  0  0  0  0  0
    0.4363    1.0529    0.0757 H   0  0  0  0  0  0  0  0  0  0  0  0
    1.9616    0.1424    0.1791 H   0  0  0  0  0  0  0  0  0  0  0  0
   -0.6782   -0.7584   -1.1506 H   0  0  0  0  0  0  0  0  0  0  0  0
    0.7821   -0.1659   -1.9842 H   0  0  0  0  0  0  0  0  0  0  0  0
    0.7637   -1.6338   -3.4555 H   0  0  0  0  0  0  0  0  0  0  0  0
    1.4931   -2.5674   -4.6735 H   0  0  0  0  0  0  0  0  0  0  0  0
    0.3594   -4.0186   -2.1318 H   0  0  0  0  0  0  0  0  0  0  0  0
   -0.5143   -3.7238   -3.6337 H   0  0  0  0  0  0  0  0  0  0  0  0
    1.0252   -4.7186   -3.5906 H   0  0  0  0  0  0  0  0  0  0  0  0
    3.4027   -4.5283   -2.2662 H   0  0  0  0  0  0  0  0  0  0  0  0
    9.2388   -3.7969   -3.7420 H   0  0  0  0  0  0  0  0  0  0  0  0
    9.1505   -2.5513    0.3628 H   0  0  0  0  0  0  0  0  0  0  0  0
    6.6853   -2.5136    0.3208 H   0  0  0  0  0  0  0  0  0  0  0  0
  1  2  1  0  0  0  0
  1 21  1  0  0  0  0
  1 22  1  0  0  0  0
  1 23  1  0  0  0  0
  2  3  1  0  0  0  0
  2 24  1  0  0  0  0
  2 25  1  0  0  0  0
  3  4  1  0  0  0  0
  4  5  2  0  0  0  0
  4  6  1  0  0  0  0
  4  9  1  0  0  0  0
  6  7  1  0  0  0  0
  7  8  1  0  0  0  0
  7 26  1  0  0  0  0
  7 27  1  0  0  0  0
  8 28  1  0  0  0  0
  8 29  1  0  0  0  0
  8 30  1  0  0  0  0
  9 10  1  0  0  0  0
 10 11  2  0  0  0  0
 10 13  1  0  0  0  0
 11 12  1  0  0  0  0
 11 31  1  0  0  0  0
 13 14  2  0  0  0  0
 13 18  1  0  0  0  0
 14 15  1  0  0  0  0
 14 20  1  0  0  0  0
 15 16  2  0  0  0  0
 15 32  1  0  0  0  0
 16 17  1  0  0  0  0
 16 19  1  0  0  0  0
 17 18  2  0  0  0  0
 17 33  1  0  0  0  0
 18 34  1  0  0  0  0
M  END
$$$$

 OpenBabel05152416213D

 78 78  0  0  0  0  0  0  0  0999 V2000
    1.4810    0.2577   -1.1854 C   0  0  0  0  0  0  0  0  0  0  0  0
    0.9733   -0.0090    1.3806 C   0  0  0  0  0  0  0  0  0  0  0  0
    1.0534    0.6546    2.1418 C   0  0  0  0  0  0  0  0  0  0  0  0
   -0.2239    1.9490    1.5278 C   0  0  0  0  0  0  0  0  0  0  0  0
   -1.5679    2.1433    1.9773 C   0  0  0  0  0  0  0  0  0  0  0  0
   -1.8054    1.9902    3.4305 C   0  0  0  0  0  0  0  0  0  0  0  0
   -1.2371    3.1285    4.2890 C   0  0  0  0  0  0  0  0  0  0  0  0
   -1.5333    4.5103    3.8310 N   0  3  0  0  0  0  0  0  0  0  0  0
   -3.0140    4.5329    3.7646 C   0  0  0  0  0  0  0  0  0  0  0  0
   -3.6044    4.1810    5.1455 C   0  0  0  0  0  0  0  0  0  0  0  0
   -1.0260    5.5472    4.7755 C   0  0  0  0  0  0  0  0  0  0  0  0
    0.4753    5.6304    5.0663 C   0  0  0  0  0  0  0  0  0  0  0  0
   -0.9247    4.9059    2.5397 C   0  0  0  0  0  0  0  0  0  0  0  0
    0.6432    4.8360    2.5496 C   0  0  0  0  0  0  0  0  0  0  0  0
    1.6548    3.9060    3.2812 C   0  0  0  0  0  0  0  0  0  0  0  0
    1.7179    2.8676    2.6485 C   0  0  0  0  0  0  0  0  0  0  0  0
    2.1386    3.1745    0.7806 C   0  0  0  0  0  0  0  0  0  0  0  0
    2.5126    2.2234   -0.1173 C   0  0  0  0  0  0  0  0  0  0  0  0
    2.6944    2.2891   -1.6381 C   0  0  0  0  0  0  0  0  0  0  0  0
    2.2861    3.3348   -2.2933 C   0  0  0  0  0  0  0  0  0  0  0  0
    1.7167    4.2850   -1.5516 C   0  0  0  0  0  0  0  0  0  0  0  0
    1.6063    4.1847   -0.1668 C   0  0  0  0  0  0  0  0  0  0  0  0
    2.4158    3.3514   -4.0349 Cl  0  0  0  0  0  0  0  0  0  0  0  0
    2.5209   -1.3553    0.1583 C   0  0  0  0  0  0  0  0  0  0  0  0
    0.3192   -1.4088   -0.2174 C   0  0  0  0  0  0  0  0  0  0  0  0
   -0.2884   -2.3156   -0.0383 C   0  0  0  0  0  0  0  0  0  0  0  0
   -1.6296   -1.8713   -0.0517 C   0  0  0  0  0  0  0  0  0  0  0  0
   -2.2503   -0.4919   -0.1957 C   0  0  0  0  0  0  0  0  0  0  0  0
   -1.7014    0.6015   -0.4242 C   0  0  0  0  0  0  0  0  0  0  0  0
   -0.6097    0.2925   -0.3741 C   0  0  0  0  0  0  0  0  0  0  0  0
   -3.7906   -0.0679   -0.0815 S   0  0  0  0  0  0  0  0  0  0  0  0
   -4.3422   -0.7592   -1.3072 O   0  0  0  0  0  0  0  0  0  0  0  0
   -4.2971   -0.7723    1.1588 O   0  0  0  0  0  0  0  0  0  0  0  0
   -4.2685    1.6003   -0.0743 O   0  5  0  0  0  0  0  0  0  0  0  0
    0.8546    0.8107   -1.9702 H   0  0  0  0  0  0  0  0  0  0  0  0
    1.0132   -0.5463   -1.9933 H   0  0  0  0  0  0  0  0  0  0  0  0
    2.2217    0.0675   -1.5424 H   0  0  0  0  0  0  0  0  0  0  0  0
   -0.1867   -0.2245    1.8604 H   0  0  0  0  0  0  0  0  0  0  0  0
    1.0927   -1.1036    1.9859 H   0  0  0  0  0  0  0  0  0  0  0  0
    1.0675    0.2546    3.3022 H   0  0  0  0  0  0  0  0  0  0  0  0
    2.2427    0.6967    2.2482 H   0  0  0  0  0  0  0  0  0  0  0  0
   -0.0093    3.0254    1.2007 H   0  0  0  0  0  0  0  0  0  0  0  0
    0.0104    2.8746    0.9525 H   0  0  0  0  0  0  0  0  0  0  0  0
   -1.9762    2.8636    1.2213 H   0  0  0  0  0  0  0  0  0  0  0  0
   -2.0149    1.2899    1.7176 H   0  0  0  0  0  0  0  0  0  0  0  0
   -2.9055    1.8727    3.5134 H   0  0  0  0  0  0  0  0  0  0  0  0
   -1.3905    1.0123    3.7490 H   0  0  0  0  0  0  0  0  0  0  0  0
   -1.4174    2.9002    5.3282 H   0  0  0  0  0  0  0  0  0  0  0  0
   -0.3087    3.0544    4.7184 H   0  0  0  0  0  0  0  0  0  0  0  0
   -3.3668    5.4914    3.3874 H   0  0  0  0  0  0  0  0  0  0  0  0
   -3.4216    3.8080    3.0207 H   0  0  0  0  0  0  0  0  0  0  0  0
   -3.2720    4.9211    5.8771 H   0  0  0  0  0  0  0  0  0  0  0  0
   -4.6752    4.1551    5.1101 H   0  0  0  0  0  0  0  0  0  0  0  0
   -3.3245    3.1782    5.5299 H   0  0  0  0  0  0  0  0  0  0  0  0
   -1.3506    6.5304    4.3829 H   0  0  0  0  0  0  0  0  0  0  0  0
   -1.3376    5.3172    5.7714 H   0  0  0  0  0  0  0  0  0  0  0  0
    1.0739    6.1079    4.3347 H   0  0  0  0  0  0  0  0  0  0  0  0
    0.8506    6.4045    5.6685 H   0  0  0  0  0  0  0  0  0  0  0  0
    0.8568    4.6998    5.4462 H   0  0  0  0  0  0  0  0  0  0  0  0
   -1.4483    4.6131    1.6681 H   0  0  0  0  0  0  0  0  0  0  0  0
   -1.2966    5.8785    2.1492 H   0  0  0  0  0  0  0  0  0  0  0  0
    1.0884    5.1806    1.7571 H   0  0  0  0  0  0  0  0  0  0  0  0
    1.0765    5.8009    2.4803 H   0  0  0  0  0  0  0  0  0  0  0  0
    2.6294    3.7206    2.9409 H   0  0  0  0  0  0  0  0  0  0  0  0
    1.6869    3.5300    4.3247 H   0  0  0  0  0  0  0  0  0  0  0  0
    0.7979    2.3004    3.3330 H   0  0  0  0  0  0  0  0  0  0  0  0
    0.7971    2.2957    3.3377 H   0  0  0  0  0  0  0  0  0  0  0  0
    2.3116    1.4109    0.3662 H   0  0  0  0  0  0  0  0  0  0  0  0
    2.8301    1.5067   -2.4741 H   0  0  0  0  0  0  0  0  0  0  0  0
    1.2851    5.1447   -2.0003 H   0  0  0  0  0  0  0  0  0  0  0  0
    0.8541    4.8621    0.0158 H   0  0  0  0  0  0  0  0  0  0  0  0
    3.0410   -0.8566    1.1256 H   0  0  0  0  0  0  0  0  0  0  0  0
    3.3422   -1.0650   -0.6600 H   0  0  0  0  0  0  0  0  0  0  0  0
    3.2230   -0.2556    0.2081 H   0  0  0  0  0  0  0  0  0  0  0  0
    0.4915   -3.0597    0.0671 H   0  0  0  0  0  0  0  0  0  0  0  0
   -2.2037   -2.5916    0.0615 H   0  0  0  0  0  0  0  0  0  0  0  0
   -1.9715    1.7530   -0.5420 H   0  0  0  0  0  0  0  0  0  0  0  0
   -0.1021    1.3727   -0.4763 H   0  0  0  0  0  0  0  0  0  0  0  0
  1  2  1  0  0  0  0
  1 35  1  0  0  0  0
  1 36  1  0  0  0  0
  1 37  1  0  0  0  0
  2  3  1  0  0  0  0
  2 38  1  0  0  0  0
  2 39  1  0  0  0  0
  3  4  1  0  0  0  0
  3 40  1  0  0  0  0
  3 41  1  0  0  0  0
  4  5  1  0  0  0  0
  4 42  1  0  0  0  0
  4 43  1  0  0  0  0
  5  6  1  0  0  0  0
  5 44  1  0  0  0  0
  5 45  1  0  0  0  0
  6  7  1  0  0  0  0
  6 46  1  0  0  0  0
  6 47  1  0  0  0  0
  7  8  1  0  0  0  0
  7 48  1  0  0  0  0
  7 49  1  0  0  0  0
  8  9  1  0  0  0  0
  8 11  1  0  0  0  0
  8 13  1  0  0  0  0
  9 10  1  0  0  0  0
  9 50  1  0  0  0  0
  9 51  1  0  0  0  0
 10 52  1  0  0  0  0
 10 53  1  0  0  0  0
 10 54  1  0  0  0  0
 11 12  1  0  0  0  0
 11 55  1  0  0  0  0
 11 56  1  0  0  0  0
 12 57  1  0  0  0  0
 12 58  1  0  0  0  0
 12 59  1  0  0  0  0
 13 14  1  0  0  0  0
 13 60  1  0  0  0  0
 13 61  1  0  0  0  0
 14 15  1  0  0  0  0
 14 62  1  0  0  0  0
 14 63  1  0  0  0  0
 15 16  1  0  0  0  0
 15 64  1  0  0  0  0
 15 65  1  0  0  0  0
 16 17  1  0  0  0  0
 16 66  1  0  0  0  0
 16 67  1  0  0  0  0
 17 18  2  0  0  0  0
 17 22  1  0  0  0  0
 18 19  1  0  0  0  0
 18 68  1  0  0  0  0
 19 20  2  0  0  0  0
 19 69  1  0  0  0  0
 20 21  1  0  0  0  0
 20 23  1  0  0  0  0
 21 22  2  0  0  0  0
 21 70  1  0  0  0  0
 22 71  1  0  0  0  0
 24 25  1  0  0  0  0
 24 72  1  0  0  0  0
 24 73  1  0  0  0  0
 24 74  1  0  0  0  0
 25 26  2  0  0  0  0
 25 30  1  0  0  0  0
 26 27  1  0  0  0  0
 26 75  1  0  0  0  0
 27 28  2  0  0  0  0
 27 76  1  0  0  0  0
 28 29  1  0  0  0  0
 28 31  1  0  0  0  0
 29 30  2  0  0  0  0
 29 77  1  0  0  0  0
 30 78  1  0  0  0  0
 31 32  2  0  0  0  0
 31 33  2  0  0  0  0
 31 34  1  0  0  0  0
M  CHG  2   8   1  34  -1
M  END
$$$$

 OpenBabel05152416213D

 44 45  0  0  0  0  0  0  0  0999 V2000
   -1.3854   -1.6916   -0.3031 C   0  0  0  0  0  0  0  0  0  0  0  0
   -0.1417   -2.3425   -0.3416 C   0  0  0  0  0  0  0  0  0  0  0  0
    1.0519   -1.6277   -0.5823 C   0  0  0  0  0  0  0  0  0  0  0  0
    0.9620   -0.2422   -0.9570 C   0  0  0  0  0  0  0  0  0  0  0  0
   -0.3027    0.4057   -0.8128 C   0  0  0  0  0  0  0  0  0  0  0  0
   -1.4480   -0.3093   -0.4625 C   0  0  0  0  0  0  0  0  0  0  0  0
   -2.9384    0.5627   -0.1029 Cl  0  0  0  0  0  0  0  0  0  0  0  0
    2.4092    0.7321   -1.4100 Cl  0  0  0  0  0  0  0  0  0  0  0  0
    2.3869   -2.3572   -0.3023 C   0  0  0  0  0  0  0  0  0  0  0  0
    3.2635   -2.1065   -1.3073 O   0  0  0  0  0  0  0  0  0  0  0  0
    2.8415   -2.2139   -2.5467 N   0  0  0  0  0  0  0  0  0  0  0  0
    3.5315   -1.8163   -3.5529 C   0  0  0  0  0  0  0  0  0  0  0  0
    4.8851   -1.1722   -3.3016 C   0  0  0  0  0  0  0  0  0  0  0  0
    5.9491   -2.0319   -3.7706 N   0  0  0  0  0  0  0  0  0  0  0  0
    7.0173   -1.6706   -4.4976 C   0  0  0  0  0  0  0  0  0  0  0  0
    7.6863   -2.8277   -4.8435 C   0  0  0  0  0  0  0  0  0  0  0  0
    7.0496   -3.8964   -4.3066 N   0  0  0  0  0  0  0  0  0  0  0  0
    5.9945   -3.3743   -3.6459 C   0  0  0  0  0  0  0  0  0  0  0  0
    2.9283   -2.0678   -4.9092 C   0  0  0  0  0  0  0  0  0  0  0  0
    3.6021   -2.6231   -6.0477 C   0  0  0  0  0  0  0  0  0  0  0  0
    2.9377   -2.8941   -7.2139 C   0  0  0  0  0  0  0  0  0  0  0  0
    1.6279   -2.5761   -7.3746 C   0  0  0  0  0  0  0  0  0  0  0  0
    0.9252   -1.9872   -6.3295 C   0  0  0  0  0  0  0  0  0  0  0  0
    1.5520   -1.7575   -5.0895 C   0  0  0  0  0  0  0  0  0  0  0  0
    0.9322   -2.9178   -8.9379 Cl  0  0  0  0  0  0  0  0  0  0  0  0
    5.2135   -3.1164   -6.3382 Cl  0  0  0  0  0  0  0  0  0  0  0  0
    1.5103    0.7356    1.4954 N   0  3  0  0  0  0  0  0  0  0  0  0
    1.4059    1.8392    1.0183 O   0  0  0  0  0  0  0  0  0  0  0  0
    0.4060    0.1161    1.8448 O   0  0  0  0  0  0  0  0  0  0  0  0
    2.6370    0.0875    1.3311 O   0  5  0  0  0  0  0  0  0  0  0  0
   -2.2868   -2.2365   -0.0403 H   0  0  0  0  0  0  0  0  0  0  0  0
   -0.1012   -3.3917   -0.0820 H   0  0  0  0  0  0  0  0  0  0  0  0
   -0.4282    1.4839   -0.8600 H   0  0  0  0  0  0  0  0  0  0  0  0
    2.8789   -2.0915    0.6691 H   0  0  0  0  0  0  0  0  0  0  0  0
    2.2648   -3.4498   -0.1469 H   0  0  0  0  0  0  0  0  0  0  0  0
    4.9096   -0.1676   -3.7790 H   0  0  0  0  0  0  0  0  0  0  0  0
    5.0683   -0.9975   -2.2186 H   0  0  0  0  0  0  0  0  0  0  0  0
    7.2509   -0.6581   -4.8030 H   0  0  0  0  0  0  0  0  0  0  0  0
    8.5293   -2.8927   -5.5146 H   0  0  0  0  0  0  0  0  0  0  0  0
    5.1958   -3.9658   -3.2053 H   0  0  0  0  0  0  0  0  0  0  0  0
    3.4661   -3.3622   -8.0388 H   0  0  0  0  0  0  0  0  0  0  0  0
   -0.1026   -1.7184   -6.4965 H   0  0  0  0  0  0  0  0  0  0  0  0
    0.9628   -1.3033   -4.2950 H   0  0  0  0  0  0  0  0  0  0  0  0
    0.2298   -0.8081    1.6179 H   0  0  0  0  0  0  0  0  0  0  0  0
  1  2  2  0  0  0  0
  1  6  1  0  0  0  0
  1 31  1  0  0  0  0
  2  3  1  0  0  0  0
  2 32  1  0  0  0  0
  3  4  2  0  0  0  0
  3  9  1  0  0  0  0
  4  5  1  0  0  0  0
  4  8  1  0  0  0  0
  5  6  2  0  0  0  0
  5 33  1  0  0  0  0
  6  7  1  0  0  0  0
  9 10  1  0  0  0  0
  9 34  1  0  0  0  0
  9 35  1  0  0  0  0
 10 11  1  0  0  0  0
 11 12  2  0  0  0  0
 12 13  1  0  0  0  0
 12 19  1  0  0  0  0
 13 14  1  0  0  0  0
 13 36  1  0  0  0  0
 13 37  1  0  0  0  0
 14 15  1  0  0  0  0
 14 18  1  0  0  0  0
 15 16  2  0  0  0  0
 15 38  1  0  0  0  0
 16 17  1  0  0  0  0
 16 39  1  0  0  0  0
 17 18  2  0  0  0  0
 18 40  1  0  0  0  0
 19 20  2  0  0  0  0
 19 24  1  0  0  0  0
 20 21  1  0  0  0  0
 20 26  1  0  0  0  0
 21 22  2  0  0  0  0
 21 41  1  0  0  0  0
 22 23  1  0  0  0  0
 22 25  1  0  0  0  0
 23 24  2  0  0  0  0
 23 42  1  0  0  0  0
 24 43  1  0  0  0  0
 27 28  2  0  0  0  0
 27 29  1  0  0  0  0
 27 30  1  0  0  0  0
 29 44  1  0  0  0  0
M  CHG  2  27   1  30  -1
M  END
$$$$

 OpenBabel05152416213D

 77 80  0  0  0  0  0  0  0  0999 V2000
    0.0961   -0.0923    0.3439 C   0  0  0  0  0  0  0  0  0  0  0  0
   -0.1252    0.0573    1.6498 C   0  0  0  0  0  0  0  0  0  0  0  0
   -0.0878    1.2375    2.2793 C   0  0  0  0  0  0  0  0  0  0  0  0
   -0.4221    0.9853    3.5779 N   0  0  0  0  0  0  0  0  0  0  0  0
   -0.4727   -0.4382    3.6948 C   0  0  0  0  0  0  0  0  0  0  0  0
   -0.2142   -0.9709    2.4992 C   0  0  0  0  0  0  0  0  0  0  0  0
   -0.0766   -2.3550    2.2157 C   0  0  0  0  0  0  0  0  0  0  0  0
   -0.3212   -3.2420    3.2390 C   0  0  0  0  0  0  0  0  0  0  0  0
   -0.6863   -2.7357    4.5058 C   0  0  0  0  0  0  0  0  0  0  0  0
   -0.7455   -1.3119    4.7514 C   0  0  0  0  0  0  0  0  0  0  0  0
   -0.2313   -4.5732    2.9855 O   0  0  0  0  0  0  0  0  0  0  0  0
   -0.7519    1.9796    4.5939 C   0  0  0  0  0  0  0  0  0  0  0  0
    0.4570    2.8493    4.8877 C   0  0  0  0  0  0  0  0  0  0  0  0
    0.8751    3.9336    4.1465 C   0  0  0  0  0  0  0  0  0  0  0  0
    2.2360    4.4240    4.2613 C   0  0  0  0  0  0  0  0  0  0  0  0
    3.0417    3.9765    5.2507 C   0  0  0  0  0  0  0  0  0  0  0  0
    2.5471    2.9877    6.0252 C   0  0  0  0  0  0  0  0  0  0  0  0
    1.2822    2.4168    5.8443 C   0  0  0  0  0  0  0  0  0  0  0  0
    4.2652    4.5327    5.4856 O   0  0  0  0  0  0  0  0  0  0  0  0
    4.8809    4.5591    6.7395 C   0  0  0  0  0  0  0  0  0  0  0  0
    4.0319    5.3617    7.7677 C   0  0  0  0  0  0  0  0  0  0  0  0
    2.7033    4.7362    8.0587 N   0  0  0  0  0  0  0  0  0  0  0  0
    2.7640    3.5876    9.0299 C   0  0  0  0  0  0  0  0  0  0  0  0
    1.7569    2.4126    8.7709 C   0  0  0  0  0  0  0  0  0  0  0  0
    0.2508    2.7616    8.7939 C   0  0  0  0  0  0  0  0  0  0  0  0
   -0.2442    4.1212    8.2349 C   0  0  0  0  0  0  0  0  0  0  0  0
    0.4017    5.3034    8.9582 C   0  0  0  0  0  0  0  0  0  0  0  0
    1.6920    5.7902    8.3064 C   0  0  0  0  0  0  0  0  0  0  0  0
    0.2555    2.5653    1.5131 C   0  0  0  0  0  0  0  0  0  0  0  0
    1.4604    3.2833    1.7188 C   0  0  0  0  0  0  0  0  0  0  0  0
    1.4797    4.6847    1.4034 C   0  0  0  0  0  0  0  0  0  0  0  0
    0.4891    5.2597    0.6623 C   0  0  0  0  0  0  0  0  0  0  0  0
   -0.4663    4.4365    0.0944 C   0  0  0  0  0  0  0  0  0  0  0  0
   -0.6095    3.1113    0.5491 C   0  0  0  0  0  0  0  0  0  0  0  0
    0.4744    6.6038    0.5103 O   0  0  0  0  0  0  0  0  0  0  0  0
    2.3590   -0.3092   -1.1592 C   0  0  0  0  0  0  0  0  0  0  0  0
    1.2777   -0.0811   -2.1994 C   0  0  0  0  0  0  0  0  0  0  0  0
    0.3734   -0.8962   -2.3580 O   0  0  0  0  0  0  0  0  0  0  0  0
    1.1651    1.1429   -2.7494 O   0  0  0  0  0  0  0  0  0  0  0  0
   -0.1160    0.8005   -0.2585 H   0  0  0  0  0  0  0  0  0  0  0  0
   -0.2894   -1.0441   -0.0476 H   0  0  0  0  0  0  0  0  0  0  0  0
    1.1194   -0.1208    0.7113 H   0  0  0  0  0  0  0  0  0  0  0  0
    0.2089   -2.7318    1.2321 H   0  0  0  0  0  0  0  0  0  0  0  0
   -0.9143   -3.4434    5.2841 H   0  0  0  0  0  0  0  0  0  0  0  0
   -1.0051   -0.9600    5.7277 H   0  0  0  0  0  0  0  0  0  0  0  0
   -0.4425   -5.2477    3.6431 H   0  0  0  0  0  0  0  0  0  0  0  0
   -1.6023    2.5786    4.2169 H   0  0  0  0  0  0  0  0  0  0  0  0
   -1.0842    1.4272    5.4982 H   0  0  0  0  0  0  0  0  0  0  0  0
    0.1565    4.2454    3.4121 H   0  0  0  0  0  0  0  0  0  0  0  0
    2.7736    5.1059    3.6355 H   0  0  0  0  0  0  0  0  0  0  0  0
    3.2196    2.6834    6.7515 H   0  0  0  0  0  0  0  0  0  0  0  0
    0.8743    1.6233    6.4228 H   0  0  0  0  0  0  0  0  0  0  0  0
    5.0980    3.5368    7.1056 H   0  0  0  0  0  0  0  0  0  0  0  0
    5.8727    5.0482    6.6391 H   0  0  0  0  0  0  0  0  0  0  0  0
    4.5963    5.4863    8.7158 H   0  0  0  0  0  0  0  0  0  0  0  0
    3.9154    6.3846    7.3261 H   0  0  0  0  0  0  0  0  0  0  0  0
    2.6474    3.9283   10.0683 H   0  0  0  0  0  0  0  0  0  0  0  0
    3.7536    3.0974    8.9246 H   0  0  0  0  0  0  0  0  0  0  0  0
    1.9316    1.5471    9.4258 H   0  0  0  0  0  0  0  0  0  0  0  0
    2.0528    1.7332    7.9855 H   0  0  0  0  0  0  0  0  0  0  0  0
   -0.3518    1.9502    8.3194 H   0  0  0  0  0  0  0  0  0  0  0  0
   -0.0018    2.7473    9.8660 H   0  0  0  0  0  0  0  0  0  0  0  0
   -0.1948    4.2617    7.1334 H   0  0  0  0  0  0  0  0  0  0  0  0
   -1.3259    4.1447    8.4910 H   0  0  0  0  0  0  0  0  0  0  0  0
   -0.2965    6.1682    8.9444 H   0  0  0  0  0  0  0  0  0  0  0  0
    0.5847    5.0376   10.0189 H   0  0  0  0  0  0  0  0  0  0  0  0
    1.4267    6.2526    7.3217 H   0  0  0  0  0  0  0  0  0  0  0  0
    2.0985    6.6125    8.9406 H   0  0  0  0  0  0  0  0  0  0  0  0
    2.2402    2.8391    2.3334 H   0  0  0  0  0  0  0  0  0  0  0  0
    2.1818    5.4118    1.7787 H   0  0  0  0  0  0  0  0  0  0  0  0
   -1.1510    4.8560   -0.6168 H   0  0  0  0  0  0  0  0  0  0  0  0
   -1.4415    2.5439    0.1902 H   0  0  0  0  0  0  0  0  0  0  0  0
   -0.2454    7.0712    0.0672 H   0  0  0  0  0  0  0  0  0  0  0  0
    2.1260   -1.2488   -0.5736 H   0  0  0  0  0  0  0  0  0  0  0  0
    2.3482    0.6500   -0.5741 H   0  0  0  0  0  0  0  0  0  0  0  0
    3.4256   -0.3641   -1.3299 H   0  0  0  0  0  0  0  0  0  0  0  0
    0.4152    1.3742   -3.3147 H   0  0  0  0  0  0  0  0  0  0  0  0
  1  2  1  0  0  0  0
  1 40  1  0  0  0  0
  1 41  1  0  0  0  0
  1 42  1  0  0  0  0
  2  3  2  0  0  0  0
  2  6  1  0  0  0  0
  3  4  1  0  0  0  0
  3 29  1  0  0  0  0
  4  5  1  0  0  0  0
  4 12  1  0  0  0  0
  5  6  2  0  0  0  0
  5 10  1  0  0  0  0
  6  7  1  0  0  0  0
  7  8  2  0  0  0  0
  7 43  1  0  0  0  0
  8  9  1  0  0  0  0
  8 11  1  0  0  0  0
  9 10  2  0  0  0  0
  9 44  1  0  0  0  0
 10 45  1  0  0  0  0
 11 46  1  0  0  0  0
 12 13  1  0  0  0  0
 12 47  1  0  0  0  0
 12 48  1  0  0  0  0
 13 14  2  0  0  0  0
 13 18  1  0  0  0  0
 14 15  1  0  0  0  0
 14 49  1  0  0  0  0
 15 16  2  0  0  0  0
 15 50  1  0  0  0  0
 16 17  1  0  0  0  0
 16 19  1  0  0  0  0
 17 18  2  0  0  0  0
 17 51  1  0  0  0  0
 18 52  1  0  0  0  0
 19 20  1  0  0  0  0
 20 21  1  0  0  0  0
 20 53  1  0  0  0  0
 20 54  1  0  0  0  0
 21 22  1  0  0  0  0
 21 55  1  0  0  0  0
 21 56  1  0  0  0  0
 22 23  1  0  0  0  0
 22 28  1  0  0  0  0
 23 24  1  0  0  0  0
 23 57  1  0  0  0  0
 23 58  1  0  0  0  0
 24 25  1  0  0  0  0
 24 59  1  0  0  0  0
 24 60  1  0  0  0  0
 25 26  1  0  0  0  0
 25 61  1  0  0  0  0
 25 62  1  0  0  0  0
 26 27  1  0  0  0  0
 26 63  1  0  0  0  0
 26 64  1  0  0  0  0
 27 28  1  0  0  0  0
 27 65  1  0  0  0  0
 27 66  1  0  0  0  0
 28 67  1  0  0  0  0
 28 68  1  0  0  0  0
 29 30  2  0  0  0  0
 29 34  1  0  0  0  0
 30 31  1  0  0  0  0
 30 69  1  0  0  0  0
 31 32  2  0  0  0  0
 31 70  1  0  0  0  0
 32 33  1  0  0  0  0
 32 35  1  0  0  0  0
 33 34  2  0  0  0  0
 33 71  1  0  0  0  0
 34 72  1  0  0  0  0
 35 73  1  0  0  0  0
 36 37  1  0  0  0  0
 36 74  1  0  0  0  0
 36 75  1  0  0  0  0
 36 76  1  0  0  0  0
 37 38  2  0  0  0  0
 37 39  1  0  0  0  0
 39 77  1  0  0  0  0
M  END
$$$$

 OpenBabel05152416213D

 49 52  0  0  0  0  0  0  0  0999 V2000
    0.9997   -0.0385   -0.0154 C   0  0  0  0  0  0  0  0  0  0  0  0
    0.4912    0.4273    1.3639 C   0  0  0  0  0  0  0  0  0  0  0  0
    1.0683    1.8529    1.6017 C   0  0  0  0  0  0  0  0  0  0  0  0
   -1.0512    0.4395    1.4118 C   0  0  0  0  0  0  0  0  0  0  0  0
   -1.8228    1.6228    1.5166 C   0  0  0  0  0  0  0  0  0  0  0  0
   -3.2186    1.5588    1.6421 C   0  0  0  0  0  0  0  0  0  0  0  0
   -3.8635    0.3210    1.6936 C   0  0  0  0  0  0  0  0  0  0  0  0
   -3.0984   -0.8434    1.6203 C   0  0  0  0  0  0  0  0  0  0  0  0
   -1.7447   -0.7845    1.4411 C   0  0  0  0  0  0  0  0  0  0  0  0
   -5.2241    0.2628    1.7608 O   0  0  0  0  0  0  0  0  0  0  0  0
   -5.9673   -0.9008    1.6320 C   0  0  0  0  0  0  0  0  0  0  0  0
   -5.5609   -1.6430    0.3369 C   0  0  0  0  0  0  0  0  0  0  0  0
   -5.4696   -3.1236    0.4813 C   0  0  0  0  0  0  0  0  0  0  0  0
   -6.5514   -2.5034   -0.1647 O   0  0  0  0  0  0  0  0  0  0  0  0
    0.9046   -0.5430    2.4876 C   0  0  0  0  0  0  0  0  0  0  0  0
    0.8869   -1.9546    2.3030 C   0  0  0  0  0  0  0  0  0  0  0  0
    1.0289   -2.8229    3.3823 C   0  0  0  0  0  0  0  0  0  0  0  0
    1.2236   -2.3025    4.6534 C   0  0  0  0  0  0  0  0  0  0  0  0
    1.2456   -0.9174    4.8460 C   0  0  0  0  0  0  0  0  0  0  0  0
    1.1077   -0.0555    3.7849 C   0  0  0  0  0  0  0  0  0  0  0  0
    1.4682   -3.1522    5.6770 O   0  0  0  0  0  0  0  0  0  0  0  0
    2.0351   -2.7813    6.8800 C   0  0  0  0  0  0  0  0  0  0  0  0
    3.5178   -2.2990    6.7701 C   0  0  0  0  0  0  0  0  0  0  0  0
    4.1373   -1.9491    5.4379 C   0  0  0  0  0  0  0  0  0  0  0  0
    3.6166   -0.9730    6.2978 O   0  0  0  0  0  0  0  0  0  0  0  0
    0.6677    0.6771   -0.7976 H   0  0  0  0  0  0  0  0  0  0  0  0
    0.6030   -1.0290   -0.3072 H   0  0  0  0  0  0  0  0  0  0  0  0
    2.1115   -0.0803   -0.0207 H   0  0  0  0  0  0  0  0  0  0  0  0
    0.7948    2.5401    0.7758 H   0  0  0  0  0  0  0  0  0  0  0  0
    0.6543    2.3155    2.5223 H   0  0  0  0  0  0  0  0  0  0  0  0
    2.1745    1.8258    1.6907 H   0  0  0  0  0  0  0  0  0  0  0  0
   -1.3756    2.6033    1.4962 H   0  0  0  0  0  0  0  0  0  0  0  0
   -3.7865    2.4772    1.6978 H   0  0  0  0  0  0  0  0  0  0  0  0
   -3.5190   -1.8302    1.6868 H   0  0  0  0  0  0  0  0  0  0  0  0
   -1.2859   -1.7431    1.3620 H   0  0  0  0  0  0  0  0  0  0  0  0
   -5.7942   -1.5438    2.5264 H   0  0  0  0  0  0  0  0  0  0  0  0
   -7.0421   -0.6331    1.6040 H   0  0  0  0  0  0  0  0  0  0  0  0
   -5.0131   -1.1407   -0.4918 H   0  0  0  0  0  0  0  0  0  0  0  0
   -4.8222   -3.6503   -0.2505 H   0  0  0  0  0  0  0  0  0  0  0  0
   -5.8793   -3.6250    1.3834 H   0  0  0  0  0  0  0  0  0  0  0  0
    0.7190   -2.4155    1.3408 H   0  0  0  0  0  0  0  0  0  0  0  0
    0.9891   -3.8942    3.2185 H   0  0  0  0  0  0  0  0  0  0  0  0
    1.3826   -0.4738    5.8153 H   0  0  0  0  0  0  0  0  0  0  0  0
    1.1423    0.9872    4.0343 H   0  0  0  0  0  0  0  0  0  0  0  0
    1.3859   -2.0530    7.4166 H   0  0  0  0  0  0  0  0  0  0  0  0
    2.0591   -3.6939    7.5066 H   0  0  0  0  0  0  0  0  0  0  0  0
    4.1027   -2.2861    7.7080 H   0  0  0  0  0  0  0  0  0  0  0  0
    5.2357   -1.8650    5.4031 H   0  0  0  0  0  0  0  0  0  0  0  0
    3.6043   -1.8355    4.4748 H   0  0  0  0  0  0  0  0  0  0  0  0
  1  2  1  0  0  0  0
  1 26  1  0  0  0  0
  1 27  1  0  0  0  0
  1 28  1  0  0  0  0
  2  3  1  0  0  0  0
  2  4  1  0  0  0  0
  2 15  1  0  0  0  0
  3 29  1  0  0  0  0
  3 30  1  0  0  0  0
  3 31  1  0  0  0  0
  4  5  2  0  0  0  0
  4  9  1  0  0  0  0
  5  6  1  0  0  0  0
  5 32  1  0  0  0  0
  6  7  2  0  0  0  0
  6 33  1  0  0  0  0
  7  8  1  0  0  0  0
  7 10  1  0  0  0  0
  8  9  2  0  0  0  0
  8 34  1  0  0  0  0
  9 35  1  0  0  0  0
 10 11  1  0  0  0  0
 11 12  1  0  0  0  0
 11 36  1  0  0  0  0
 11 37  1  0  0  0  0
 12 13  1  0  0  0  0
 12 14  1  0  0  0  0
 12 38  1  0  0  0  0
 13 14  1  0  0  0  0
 13 39  1  0  0  0  0
 13 40  1  0  0  0  0
 15 16  2  0  0  0  0
 15 20  1  0  0  0  0
 16 17  1  0  0  0  0
 16 41  1  0  0  0  0
 17 18  2  0  0  0  0
 17 42  1  0  0  0  0
 18 19  1  0  0  0  0
 18 21  1  0  0  0  0
 19 20  2  0  0  0  0
 19 43  1  0  0  0  0
 20 44  1  0  0  0  0
 21 22  1  0  0  0  0
 22 23  1  0  0  0  0
 22 45  1  0  0  0  0
 22 46  1  0  0  0  0
 23 24  1  0  0  0  0
 23 25  1  0  0  0  0
 23 47  1  0  0  0  0
 24 25  1  0  0  0  0
 24 48  1  0  0  0  0
 24 49  1  0  0  0  0
M  END
$$$$

 OpenBabel05152416213D

 31 33  0  0  1  0  0  0  0  0999 V2000
    3.8046   -3.6493    1.4001 C   0  0  0  0  0  0  0  0  0  0  0  0
    5.1034   -4.0802    1.3215 N   0  0  0  0  0  0  0  0  0  0  0  0
    5.4832   -3.7489    0.0714 C   0  0  0  0  0  0  0  0  0  0  0  0
    6.6940   -3.9531   -0.6137 C   0  0  0  0  0  0  0  0  0  0  0  0
    6.7699   -3.5137   -1.9042 N   0  0  0  0  0  0  0  0  0  0  0  0
    5.7133   -2.8944   -2.5179 C   0  0  0  0  0  0  0  0  0  0  0  0
    4.5424   -2.7041   -1.8437 N   0  0  0  0  0  0  0  0  0  0  0  0
    4.4550   -3.1370   -0.5649 C   0  0  0  0  0  0  0  0  0  0  0  0
    3.3819   -3.0729    0.2455 N   0  0  0  0  0  0  0  0  0  0  0  0
    2.0679   -2.5391   -0.1719 C   0  0  1  0  0  0  0  0  0  0  0  0
    1.5532   -3.4455   -1.2767 C   0  0  2  0  0  0  0  0  0  0  0  0
    0.1224   -3.0445   -1.3536 C   0  0  1  0  0  0  0  0  0  0  0  0
   -0.1862   -2.7829    0.1354 C   0  0  2  0  0  0  0  0  0  0  0  0
    1.0558   -2.5352    0.8219 O   0  0  0  0  0  0  0  0  0  0  0  0
   -0.8820   -3.9732    0.8134 C   0  0  0  0  0  0  0  0  0  0  0  0
   -1.3154   -3.6182    2.1008 O   0  0  0  0  0  0  0  0  0  0  0  0
   -0.0340   -1.8826   -2.1418 O   0  0  0  0  0  0  0  0  0  0  0  0
    1.6304   -4.7612   -0.8396 F   0  0  0  0  0  0  0  0  0  0  0  0
    5.8590   -2.3585   -4.1773 Cl  0  0  0  0  0  0  0  0  0  0  0  0
    7.8128   -4.5962   -0.0283 N   0  0  0  0  0  0  0  0  0  0  0  0
    3.1844   -3.7911    2.2758 H   0  0  0  0  0  0  0  0  0  0  0  0
    2.2009   -1.4786   -0.4774 H   0  0  0  0  0  0  0  0  0  0  0  0
    2.1047   -3.3565   -2.2314 H   0  0  0  0  0  0  0  0  0  0  0  0
   -0.5050   -3.8290   -1.8327 H   0  0  0  0  0  0  0  0  0  0  0  0
   -0.9035   -1.9296    0.1878 H   0  0  0  0  0  0  0  0  0  0  0  0
   -1.7831   -4.2687    0.2304 H   0  0  0  0  0  0  0  0  0  0  0  0
   -0.2060   -4.8508    0.8672 H   0  0  0  0  0  0  0  0  0  0  0  0
   -0.5177   -3.3250    2.6127 H   0  0  0  0  0  0  0  0  0  0  0  0
    0.5352   -1.1512   -1.7971 H   0  0  0  0  0  0  0  0  0  0  0  0
    7.7889   -4.9505    0.9365 H   0  0  0  0  0  0  0  0  0  0  0  0
    8.6792   -4.7144   -0.5784 H   0  0  0  0  0  0  0  0  0  0  0  0
  1  2  2  0  0  0  0
  1  9  1  0  0  0  0
  1 21  1  0  0  0  0
  2  3  1  0  0  0  0
  3  4  2  0  0  0  0
  3  8  1  0  0  0  0
  4  5  1  0  0  0  0
  4 20  1  0  0  0  0
  5  6  2  0  0  0  0
  6  7  1  0  0  0  0
  6 19  1  0  0  0  0
  7  8  2  0  0  0  0
  8  9  1  0  0  0  0
 10 11  1  0  0  0  0
 10 14  1  0  0  0  0
 10 22  1  6  0  0  0
 10  9  1  0  0  0  0
 11 12  1  0  0  0  0
 11 18  1  0  0  0  0
 11 23  1  6  0  0  0
 12 13  1  0  0  0  0
 12 17  1  0  0  0  0
 12 24  1  6  0  0  0
 13 14  1  0  0  0  0
 13 15  1  0  0  0  0
 13 25  1  1  0  0  0
 15 16  1  0  0  0  0
 15 26  1  0  0  0  0
 15 27  1  0  0  0  0
 16 28  1  0  0  0  0
 17 29  1  0  0  0  0
 20 30  1  0  0  0  0
 20 31  1  0  0  0  0
M  END
$$$$

 OpenBabel05152416213D

 46 48  0  0  0  0  0  0  0  0999 V2000
    1.0844    0.0177   -0.0352 C   0  0  0  0  0  0  0  0  0  0  0  0
    0.6011    1.4087   -0.3610 C   0  0  0  0  0  0  0  0  0  0  0  0
    1.0932    1.8317   -1.5802 O   0  0  0  0  0  0  0  0  0  0  0  0
    2.4602    1.9178   -1.8256 C   0  0  0  0  0  0  0  0  0  0  0  0
    3.2686    1.6218   -0.9674 O   0  0  0  0  0  0  0  0  0  0  0  0
    2.9202    2.3684   -3.1862 C   0  0  0  0  0  0  0  0  0  0  0  0
    2.3837    3.4744   -3.8781 C   0  0  0  0  0  0  0  0  0  0  0  0
    2.5400    3.6830   -5.1813 N   0  0  0  0  0  0  0  0  0  0  0  0
    3.4797    2.9430   -5.9200 C   0  0  0  0  0  0  0  0  0  0  0  0
    4.2495    2.0422   -5.1625 C   0  0  0  0  0  0  0  0  0  0  0  0
    3.9078    1.6483   -3.8825 C   0  0  0  0  0  0  0  0  0  0  0  0
    3.6379    3.1427   -7.3994 C   0  0  0  0  0  0  0  0  0  0  0  0
    3.7776    3.2820   -8.6196 C   0  0  0  0  0  0  0  0  0  0  0  0
    3.9499    3.4469  -10.1164 C   0  0  0  0  0  0  0  0  0  0  0  0
    3.8872    4.7107  -10.7075 C   0  0  0  0  0  0  0  0  0  0  0  0
    4.0125    4.9058  -12.0751 C   0  0  0  0  0  0  0  0  0  0  0  0
    4.1858    3.7950  -12.8280 C   0  0  0  0  0  0  0  0  0  0  0  0
    4.2627    2.5251  -12.3513 C   0  0  0  0  0  0  0  0  0  0  0  0
    4.1416    2.3523  -10.9770 C   0  0  0  0  0  0  0  0  0  0  0  0
    4.3818    3.8318  -14.4828 S   0  0  0  0  0  0  0  0  0  0  0  0
    3.8086    5.3576  -14.8808 C   0  0  0  0  0  0  0  0  0  0  0  0
    4.4774    6.3602  -14.0389 C   0  0  0  0  0  0  0  0  0  0  0  0
    3.9321    6.3000  -12.6190 C   0  0  0  0  0  0  0  0  0  0  0  0
    4.7357    7.2178  -11.7313 C   0  0  0  0  0  0  0  0  0  0  0  0
    2.4796    6.7365  -12.6339 C   0  0  0  0  0  0  0  0  0  0  0  0
    0.7324   -0.6735   -0.7965 H   0  0  0  0  0  0  0  0  0  0  0  0
    0.7324   -0.3119    0.9346 H   0  0  0  0  0  0  0  0  0  0  0  0
    2.1690   -0.0049   -0.0280 H   0  0  0  0  0  0  0  0  0  0  0  0
   -0.4968    1.4114   -0.3284 H   0  0  0  0  0  0  0  0  0  0  0  0
    0.9463    2.0920    0.4340 H   0  0  0  0  0  0  0  0  0  0  0  0
    1.7951    4.1896   -3.2883 H   0  0  0  0  0  0  0  0  0  0  0  0
    5.1223    1.6223   -5.6382 H   0  0  0  0  0  0  0  0  0  0  0  0
    4.3516    0.7995   -3.3976 H   0  0  0  0  0  0  0  0  0  0  0  0
    3.7405    5.5431  -10.0622 H   0  0  0  0  0  0  0  0  0  0  0  0
    4.4098    1.6749  -12.9910 H   0  0  0  0  0  0  0  0  0  0  0  0
    4.1832    1.3614  -10.5560 H   0  0  0  0  0  0  0  0  0  0  0  0
    2.7586    5.3197  -14.7946 H   0  0  0  0  0  0  0  0  0  0  0  0
    4.0817    5.4144  -15.9228 H   0  0  0  0  0  0  0  0  0  0  0  0
    5.5686    6.2262  -14.0201 H   0  0  0  0  0  0  0  0  0  0  0  0
    4.2840    7.3449  -14.4652 H   0  0  0  0  0  0  0  0  0  0  0  0
    4.6819    8.2323  -12.0892 H   0  0  0  0  0  0  0  0  0  0  0  0
    4.3550    7.2089  -10.7216 H   0  0  0  0  0  0  0  0  0  0  0  0
    5.7740    6.8934  -11.7116 H   0  0  0  0  0  0  0  0  0  0  0  0
    1.8893    6.0810  -13.2596 H   0  0  0  0  0  0  0  0  0  0  0  0
    2.0671    6.7062  -11.6354 H   0  0  0  0  0  0  0  0  0  0  0  0
    2.4015    7.7488  -13.0233 H   0  0  0  0  0  0  0  0  0  0  0  0
  1  2  1  0  0  0  0
  1 26  1  0  0  0  0
  1 27  1  0  0  0  0
  1 28  1  0  0  0  0
  2  3  1  0  0  0  0
  2 29  1  0  0  0  0
  2 30  1  0  0  0  0
  3  4  1  0  0  0  0
  4  5  2  0  0  0  0
  4  6  1  0  0  0  0
  6  7  2  0  0  0  0
  6 11  1  0  0  0  0
  7  8  1  0  0  0  0
  7 31  1  0  0  0  0
  8  9  2  0  0  0  0
  9 10  1  0  0  0  0
  9 12  1  0  0  0  0
 10 11  2  0  0  0  0
 10 32  1  0  0  0  0
 11 33  1  0  0  0  0
 12 13  3  0  0  0  0
 13 14  1  0  0  0  0
 14 15  2  0  0  0  0
 14 19  1  0  0  0  0
 15 16  1  0  0  0  0
 15 34  1  0  0  0  0
 16 17  2  0  0  0  0
 16 23  1  0  0  0  0
 17 18  1  0  0  0  0
 17 20  1  0  0  0  0
 18 19  2  0  0  0  0
 18 35  1  0  0  0  0
 19 36  1  0  0  0  0
 20 21  1  0  0  0  0
 21 22  1  0  0  0  0
 21 37  1  0  0  0  0
 21 38  1  0  0  0  0
 22 23  1  0  0  0  0
 22 39  1  0  0  0  0
 22 40  1  0  0  0  0
 23 24  1  0  0  0  0
 23 25  1  0  0  0  0
 24 41  1  0  0  0  0
 24 42  1  0  0  0  0
 24 43  1  0  0  0  0
 25 44  1  0  0  0  0
 25 45  1  0  0  0  0
 25 46  1  0  0  0  0
M  END
$$$$

 OpenBabel05152416213D

 48 46  0  0  0  0  0  0  0  0999 V2000
   -0.0695   -0.2288    0.0975 C   0  0  0  0  0  0  0  0  0  0  0  0
    0.1296   -0.5312   -1.3567 N   0  0  0  0  0  0  0  0  0  0  0  0
   -0.7000   -1.6878   -1.7230 C   0  0  0  0  0  0  0  0  0  0  0  0
    0.6857    0.3097   -2.4470 C   0  0  0  0  0  0  0  0  0  0  0  0
   -0.2066    0.7933   -3.3669 C   0  0  0  0  0  0  0  0  0  0  0  0
    0.1678    1.6279   -4.3752 C   0  0  0  0  0  0  0  0  0  0  0  0
    1.4922    2.0957   -4.5989 C   0  0  0  0  0  0  0  0  0  0  0  0
    2.4489    1.6150   -3.7825 C   0  0  0  0  0  0  0  0  0  0  0  0
    2.1070    0.7149   -2.7792 C   0  0  0  0  0  0  0  0  0  0  0  0
    1.8426    2.9593   -5.5873 N   0  0  0  0  0  0  0  0  0  0  0  0
    0.9737    3.4647   -6.4819 C   0  0  0  0  0  0  0  0  0  0  0  0
    1.3858    4.3171   -7.4800 C   0  0  0  0  0  0  0  0  0  0  0  0
    0.4364    4.7847   -8.3838 C   0  0  0  0  0  0  0  0  0  0  0  0
   -0.9517    4.4099   -8.3083 C   0  0  0  0  0  0  0  0  0  0  0  0
   -1.8356    4.8512   -9.1536 N   0  3  0  0  0  0  0  0  0  0  0  0
   -3.2635    4.4961   -9.1139 C   0  0  0  0  0  0  0  0  0  0  0  0
   -1.4159    5.7506  -10.2044 C   0  0  0  0  0  0  0  0  0  0  0  0
   -1.3358    3.5530   -7.2977 C   0  0  0  0  0  0  0  0  0  0  0  0
   -0.4423    3.1029   -6.4347 C   0  0  0  0  0  0  0  0  0  0  0  0
   -1.0238    2.1022   -5.3148 S   0  0  0  0  0  0  0  0  0  0  0  0
    1.4196   -2.7674    0.1573 O   0  0  0  0  0  0  0  0  0  0  0  0
    1.9437    3.2393   -0.6514 O   0  0  0  0  0  0  0  0  0  0  0  0
    2.5109    0.6483   -0.3104 O   0  0  0  0  0  0  0  0  0  0  0  0
    1.1474   -0.4253    3.4242 Cl  0  5  0  0  0  0  0  0  0  0  0  0
   -0.6664   -0.9492    0.7135 H   0  0  0  0  0  0  0  0  0  0  0  0
   -0.4973    0.7657    0.2524 H   0  0  0  0  0  0  0  0  0  0  0  0
    0.7413   -0.4881    0.7809 H   0  0  0  0  0  0  0  0  0  0  0  0
   -1.6687   -1.3969   -2.1636 H   0  0  0  0  0  0  0  0  0  0  0  0
   -0.0669   -2.3514   -2.3235 H   0  0  0  0  0  0  0  0  0  0  0  0
   -0.9662   -2.2830   -0.8238 H   0  0  0  0  0  0  0  0  0  0  0  0
   -1.2641    0.5314   -3.2948 H   0  0  0  0  0  0  0  0  0  0  0  0
    3.4907    1.9470   -3.9297 H   0  0  0  0  0  0  0  0  0  0  0  0
    3.0269    0.4221   -2.3468 H   0  0  0  0  0  0  0  0  0  0  0  0
    2.4254    4.6138   -7.5665 H   0  0  0  0  0  0  0  0  0  0  0  0
    0.8192    5.4415   -9.1384 H   0  0  0  0  0  0  0  0  0  0  0  0
   -3.8599    5.4096   -8.9461 H   0  0  0  0  0  0  0  0  0  0  0  0
   -3.5331    3.9710  -10.0464 H   0  0  0  0  0  0  0  0  0  0  0  0
   -3.6290    3.8178   -8.3351 H   0  0  0  0  0  0  0  0  0  0  0  0
   -0.9776    6.6654   -9.7451 H   0  0  0  0  0  0  0  0  0  0  0  0
   -0.6530    5.2413  -10.8353 H   0  0  0  0  0  0  0  0  0  0  0  0
   -2.2663    6.0433  -10.8392 H   0  0  0  0  0  0  0  0  0  0  0  0
   -2.3194    3.1767   -7.1066 H   0  0  0  0  0  0  0  0  0  0  0  0
    1.4763   -2.2138   -0.6476 H   0  0  0  0  0  0  0  0  0  0  0  0
    2.0035   -2.2638    0.7699 H   0  0  0  0  0  0  0  0  0  0  0  0
    1.2280    2.5933   -0.9226 H   0  0  0  0  0  0  0  0  0  0  0  0
    2.6654    2.8306   -0.0929 H   0  0  0  0  0  0  0  0  0  0  0  0
    1.8978    0.9769    0.3758 H   0  0  0  0  0  0  0  0  0  0  0  0
    2.5278   -0.3322   -0.4591 H   0  0  0  0  0  0  0  0  0  0  0  0
  1  2  1  0  0  0  0
  1 25  1  0  0  0  0
  1 26  1  0  0  0  0
  1 27  1  0  0  0  0
  2  3  1  0  0  0  0
  2  4  1  0  0  0  0
  3 28  1  0  0  0  0
  3 29  1  0  0  0  0
  3 30  1  0  0  0  0
  4  5  2  0  0  0  0
  4  9  1  0  0  0  0
  5  6  1  0  0  0  0
  5 31  1  0  0  0  0
  6  7  2  0  0  0  0
  6 20  1  0  0  0  0
  7  8  1  0  0  0  0
  7 10  1  0  0  0  0
  8  9  2  0  0  0  0
  8 32  1  0  0  0  0
  9 33  1  0  0  0  0
 10 11  2  0  0  0  0
 11 12  1  0  0  0  0
 11 19  1  0  0  0  0
 12 13  2  0  0  0  0
 12 34  1  0  0  0  0
 13 14  1  0  0  0  0
 13 35  1  0  0  0  0
 14 15  2  0  0  0  0
 14 18  1  0  0  0  0
 15 16  1  0  0  0  0
 15 17  1  0  0  0  0
 16 36  1  0  0  0  0
 16 37  1  0  0  0  0
 16 38  1  0  0  0  0
 17 39  1  0  0  0  0
 17 40  1  0  0  0  0
 17 41  1  0  0  0  0
 18 19  2  0  0  0  0
 18 42  1  0  0  0  0
 19 20  1  0  0  0  0
 21 43  1  0  0  0  0
 21 44  1  0  0  0  0
 22 45  1  0  0  0  0
 22 46  1  0  0  0  0
 23 47  1  0  0  0  0
 23 48  1  0  0  0  0
M  CHG  2  15   1  24  -1
M  END
$$$$

 OpenBabel05152416213D

 47 48  0  0  0  0  0  0  0  0999 V2000
    1.0910   -0.0143   -0.0367 C   0  0  0  0  0  0  0  0  0  0  0  0
    0.5634    1.3660    0.4560 C   0  0  0  0  0  0  0  0  0  0  0  0
    1.1352    2.3859   -0.5661 C   0  0  0  0  0  0  0  0  0  0  0  0
   -0.9673    1.3796    0.4242 C   0  0  0  0  0  0  0  0  0  0  0  0
   -1.7572    0.2035    0.4375 C   0  0  0  0  0  0  0  0  0  0  0  0
   -3.1423    0.2703    0.3747 C   0  0  0  0  0  0  0  0  0  0  0  0
   -3.7945    1.5122    0.2461 C   0  0  0  0  0  0  0  0  0  0  0  0
   -2.9877    2.6918    0.1422 C   0  0  0  0  0  0  0  0  0  0  0  0
   -1.6290    2.6029    0.2982 C   0  0  0  0  0  0  0  0  0  0  0  0
   -3.5334    4.5156   -0.2556 Br  0  0  0  0  0  0  0  0  0  0  0  0
   -5.1431    1.5105    0.2561 O   0  0  0  0  0  0  0  0  0  0  0  0
   -5.9573    2.6157    0.4153 C   0  0  0  0  0  0  0  0  0  0  0  0
   -5.8247    3.2789    1.8194 C   0  0  0  0  0  0  0  0  0  0  0  0
   -4.5179    3.5926    2.2276 O   0  0  0  0  0  0  0  0  0  0  0  0
   -4.1333   -1.3742    0.4462 Br  0  0  0  0  0  0  0  0  0  0  0  0
    1.0860    1.7167    1.8560 C   0  0  0  0  0  0  0  0  0  0  0  0
    1.0028    3.0180    2.4038 C   0  0  0  0  0  0  0  0  0  0  0  0
    1.5045    3.2881    3.6795 C   0  0  0  0  0  0  0  0  0  0  0  0
    2.1112    2.2679    4.4476 C   0  0  0  0  0  0  0  0  0  0  0  0
    2.2633    0.9773    3.8524 C   0  0  0  0  0  0  0  0  0  0  0  0
    1.7231    0.7334    2.6213 C   0  0  0  0  0  0  0  0  0  0  0  0
    3.1899   -0.5960    4.5300 Br  0  0  0  0  0  0  0  0  0  0  0  0
    2.4844    2.5623    5.7127 O   0  0  0  0  0  0  0  0  0  0  0  0
    2.8035    1.6446    6.6998 C   0  0  0  0  0  0  0  0  0  0  0  0
    1.5967    0.7538    7.1280 C   0  0  0  0  0  0  0  0  0  0  0  0
    0.9155    0.1064    6.0839 O   0  0  0  0  0  0  0  0  0  0  0  0
    1.3632    5.0792    4.3582 Br  0  0  0  0  0  0  0  0  0  0  0  0
    0.7320   -0.2239   -1.0627 H   0  0  0  0  0  0  0  0  0  0  0  0
    0.7685   -0.8666    0.5941 H   0  0  0  0  0  0  0  0  0  0  0  0
    2.2025   -0.0114   -0.0360 H   0  0  0  0  0  0  0  0  0  0  0  0
    0.7514    2.1586   -1.5825 H   0  0  0  0  0  0  0  0  0  0  0  0
    0.8695    3.4384   -0.3518 H   0  0  0  0  0  0  0  0  0  0  0  0
    2.2413    2.3645   -0.5591 H   0  0  0  0  0  0  0  0  0  0  0  0
   -1.3261   -0.7825    0.5128 H   0  0  0  0  0  0  0  0  0  0  0  0
   -1.0905    3.5297    0.2813 H   0  0  0  0  0  0  0  0  0  0  0  0
   -5.7850    3.3001   -0.4310 H   0  0  0  0  0  0  0  0  0  0  0  0
   -7.0113    2.2967    0.3058 H   0  0  0  0  0  0  0  0  0  0  0  0
   -6.3929    4.2310    1.7839 H   0  0  0  0  0  0  0  0  0  0  0  0
   -6.2817    2.6368    2.5972 H   0  0  0  0  0  0  0  0  0  0  0  0
   -4.0890    2.7552    2.5477 H   0  0  0  0  0  0  0  0  0  0  0  0
    0.5589    3.8333    1.8487 H   0  0  0  0  0  0  0  0  0  0  0  0
    1.8236   -0.2768    2.2823 H   0  0  0  0  0  0  0  0  0  0  0  0
    3.6933    1.0789    6.3810 H   0  0  0  0  0  0  0  0  0  0  0  0
    3.1382    2.1910    7.6015 H   0  0  0  0  0  0  0  0  0  0  0  0
    1.9930   -0.0372    7.7982 H   0  0  0  0  0  0  0  0  0  0  0  0
    0.8604    1.3476    7.7042 H   0  0  0  0  0  0  0  0  0  0  0  0
    0.3127    0.7709    5.6563 H   0  0  0  0  0  0  0  0  0  0  0  0
  1  2  1  0  0  0  0
  1 28  1  0  0  0  0
  1 29  1  0  0  0  0
  1 30  1  0  0  0  0
  2  3  1  0  0  0  0
  2  4  1  0  0  0  0
  2 16  1  0  0  0  0
  3 31  1  0  0  0  0
  3 32  1  0  0  0  0
  3 33  1  0  0  0  0
  4  5  2  0  0  0  0
  4  9  1  0  0  0  0
  5  6  1  0  0  0  0
  5 34  1  0  0  0  0
  6  7  2  0  0  0  0
  6 15  1  0  0  0  0
  7  8  1  0  0  0  0
  7 11  1  0  0  0  0
  8  9  2  0  0  0  0
  8 10  1  0  0  0  0
  9 35  1  0  0  0  0
 11 12  1  0  0  0  0
 12 13  1  0  0  0  0
 12 36  1  0  0  0  0
 12 37  1  0  0  0  0
 13 14  1  0  0  0  0
 13 38  1  0  0  0  0
 13 39  1  0  0  0  0
 14 40  1  0  0  0  0
 16 17  2  0  0  0  0
 16 21  1  0  0  0  0
 17 18  1  0  0  0  0
 17 41  1  0  0  0  0
 18 19  2  0  0  0  0
 18 27  1  0  0  0  0
 19 20  1  0  0  0  0
 19 23  1  0  0  0  0
 20 21  2  0  0  0  0
 20 22  1  0  0  0  0
 21 42  1  0  0  0  0
 23 24  1  0  0  0  0
 24 25  1  0  0  0  0
 24 43  1  0  0  0  0
 24 44  1  0  0  0  0
 25 26  1  0  0  0  0
 25 45  1  0  0  0  0
 25 46  1  0  0  0  0
 26 47  1  0  0  0  0
M  END
$$$$

 OpenBabel05152416213D

 35 38  0  0  0  0  0  0  0  0999 V2000
    1.6860   -1.1933    0.0098 C   0  0  0  0  0  0  0  0  0  0  0  0
    2.2589   -0.0869   -0.0473 C   0  0  0  0  0  0  0  0  0  0  0  0
    1.7023    1.2145   -0.0017 C   0  0  0  0  0  0  0  0  0  0  0  0
    0.3216    1.2069   -0.0107 C   0  0  0  0  0  0  0  0  0  0  0  0
   -0.3506   -0.0070    0.0013 C   0  0  0  0  0  0  0  0  0  0  0  0
    0.3288   -1.2181   -0.0163 C   0  0  0  0  0  0  0  0  0  0  0  0
   -2.0834    0.0008    0.0047 Cl  0  0  0  0  0  0  0  0  0  0  0  0
    2.3880    2.6325   -0.0187 C   0  0  0  0  0  0  0  0  0  0  0  0
    3.3261    2.6317    1.2396 C   0  0  0  0  0  0  0  0  0  0  0  0
    3.1224    3.6597    2.1298 C   0  0  0  0  0  0  0  0  0  0  0  0
    3.9373    3.6948    3.2553 C   0  0  0  0  0  0  0  0  0  0  0  0
    4.8989    2.7281    3.5015 C   0  0  0  0  0  0  0  0  0  0  0  0
    5.0856    1.7085    2.6139 C   0  0  0  0  0  0  0  0  0  0  0  0
    4.3893    1.7928    1.5766 C   0  0  0  0  0  0  0  0  0  0  0  0
    5.5637    3.0045    4.6805 N   0  0  0  0  0  0  0  0  0  0  0  0
    4.9895    4.1198    5.1188 C   0  0  0  0  0  0  0  0  0  0  0  0
    4.0243    4.5805    4.2934 N   0  0  0  0  0  0  0  0  0  0  0  0
    3.1273    2.8212   -1.2114 N   0  0  0  0  0  0  0  0  0  0  0  0
    4.0028    1.5789   -0.9383 C   0  0  0  0  0  0  0  0  0  0  0  0
    4.7839    0.2958   -0.4985 C   0  0  0  0  0  0  0  0  0  0  0  0
    5.2891    0.3848   -1.2728 N   0  0  0  0  0  0  0  0  0  0  0  0
    3.5762    2.9781   -1.9654 C   0  0  0  0  0  0  0  0  0  0  0  0
    2.2664   -2.1234    0.0050 H   0  0  0  0  0  0  0  0  0  0  0  0
    2.9951   -0.4059   -0.2973 H   0  0  0  0  0  0  0  0  0  0  0  0
   -0.2258    2.1278   -0.0352 H   0  0  0  0  0  0  0  0  0  0  0  0
   -0.2069   -2.1458   -0.0502 H   0  0  0  0  0  0  0  0  0  0  0  0
    1.7656    3.3457   -0.0199 H   0  0  0  0  0  0  0  0  0  0  0  0
    2.3737    4.4019    1.9533 H   0  0  0  0  0  0  0  0  0  0  0  0
    5.8382    0.9370    2.7622 H   0  0  0  0  0  0  0  0  0  0  0  0
    4.9102    1.3303    1.0996 H   0  0  0  0  0  0  0  0  0  0  0  0
    5.2660    4.5994    6.0329 H   0  0  0  0  0  0  0  0  0  0  0  0
    3.4739    5.4339    4.4334 H   0  0  0  0  0  0  0  0  0  0  0  0
    4.9119    1.7196   -2.2830 H   0  0  0  0  0  0  0  0  0  0  0  0
    3.9743    0.1675    0.7219 H   0  0  0  0  0  0  0  0  0  0  0  0
    2.5754    4.4407   -2.3241 H   0  0  0  0  0  0  0  0  0  0  0  0
  1  2  2  0  0  0  0
  1  6  1  0  0  0  0
  1 23  1  0  0  0  0
  2  3  1  0  0  0  0
  2 24  1  0  0  0  0
  3  4  2  0  0  0  0
  3  8  1  0  0  0  0
  4  5  1  0  0  0  0
  4 25  1  0  0  0  0
  5  6  2  0  0  0  0
  5  7  1  0  0  0  0
  6 26  1  0  0  0  0
  8  9  1  0  0  0  0
  8 18  1  0  0  0  0
  8 27  1  0  0  0  0
  9 10  2  0  0  0  0
  9 14  1  0  0  0  0
 10 11  1  0  0  0  0
 10 28  1  0  0  0  0
 11 12  2  0  0  0  0
 11 17  1  0  0  0  0
 12 13  1  0  0  0  0
 12 15  1  0  0  0  0
 13 14  2  0  0  0  0
 13 29  1  0  0  0  0
 14 30  1  0  0  0  0
 15 16  2  0  0  0  0
 16 17  1  0  0  0  0
 16 31  1  0  0  0  0
 17 32  1  0  0  0  0
 18 19  1  0  0  0  0
 18 22  1  0  0  0  0
 19 20  2  0  0  0  0
 19 33  1  0  0  0  0
 20 21  1  0  0  0  0
 20 34  1  0  0  0  0
 21 22  2  0  0  0  0
 22 35  1  0  0  0  0
M  END
$$$$

 OpenBabel05152416213D

 39 41  0  0  0  0  0  0  0  0999 V2000
   -1.4162   -0.9460    0.4565 C   0  0  0  0  0  0  0  0  0  0  0  0
   -0.2749   -1.6885    0.5474 C   0  0  0  0  0  0  0  0  0  0  0  0
    1.0943   -1.1379    0.4342 C   0  0  0  0  0  0  0  0  0  0  0  0
    1.1345    0.2557    0.3990 C   0  0  0  0  0  0  0  0  0  0  0  0
   -0.0561    1.0095    0.3644 C   0  0  0  0  0  0  0  0  0  0  0  0
   -1.3206    0.4040    0.3800 C   0  0  0  0  0  0  0  0  0  0  0  0
   -2.8253    1.2897    0.3377 Cl  0  0  0  0  0  0  0  0  0  0  0  0
    2.6798    1.0949    0.4072 Cl  0  0  0  0  0  0  0  0  0  0  0  0
    2.5135   -1.9070    0.2334 C   0  0  0  0  0  0  0  0  0  0  0  0
    3.1214   -1.7656   -1.0881 O   0  0  0  0  0  0  0  0  0  0  0  0
    2.4546   -2.3012   -2.2813 C   0  0  0  0  0  0  0  0  0  0  0  0
    2.3666   -3.9441   -2.4000 C   0  0  0  0  0  0  0  0  0  0  0  0
    1.6728   -4.6890   -1.2749 N   0  0  0  0  0  0  0  0  0  0  0  0
    1.5615   -5.9296   -0.7797 C   0  0  0  0  0  0  0  0  0  0  0  0
    0.8132   -5.8486    0.4200 C   0  0  0  0  0  0  0  0  0  0  0  0
    0.4272   -4.6178    0.5691 N   0  0  0  0  0  0  0  0  0  0  0  0
    0.9171   -4.0048   -0.5145 C   0  0  0  0  0  0  0  0  0  0  0  0
    1.1773   -1.4741   -2.5659 C   0  0  0  0  0  0  0  0  0  0  0  0
    1.2148   -0.0528   -2.6402 C   0  0  0  0  0  0  0  0  0  0  0  0
    0.0130    0.6791   -2.6854 C   0  0  0  0  0  0  0  0  0  0  0  0
   -1.2182    0.0141   -2.7032 C   0  0  0  0  0  0  0  0  0  0  0  0
   -1.2548   -1.3721   -2.6963 C   0  0  0  0  0  0  0  0  0  0  0  0
   -0.0813   -2.1005   -2.6692 C   0  0  0  0  0  0  0  0  0  0  0  0
   -2.7315    0.8935   -2.7594 Cl  0  0  0  0  0  0  0  0  0  0  0  0
    2.7328    0.8460   -2.6732 Cl  0  0  0  0  0  0  0  0  0  0  0  0
   -2.3876   -1.4530    0.4122 H   0  0  0  0  0  0  0  0  0  0  0  0
   -0.6310   -2.6848    0.5969 H   0  0  0  0  0  0  0  0  0  0  0  0
    0.0065    2.0718    0.2883 H   0  0  0  0  0  0  0  0  0  0  0  0
    3.2353   -1.5269    0.9910 H   0  0  0  0  0  0  0  0  0  0  0  0
    2.6806   -2.9606    0.5408 H   0  0  0  0  0  0  0  0  0  0  0  0
    3.1157   -2.0242   -3.1413 H   0  0  0  0  0  0  0  0  0  0  0  0
    1.8685   -4.1990   -3.3600 H   0  0  0  0  0  0  0  0  0  0  0  0
    3.4100   -4.3030   -2.4250 H   0  0  0  0  0  0  0  0  0  0  0  0
    1.9746   -6.8209   -1.1796 H   0  0  0  0  0  0  0  0  0  0  0  0
    0.5060   -6.5560    1.1687 H   0  0  0  0  0  0  0  0  0  0  0  0
    0.7849   -3.0843   -0.7699 H   0  0  0  0  0  0  0  0  0  0  0  0
    0.0317    1.7632   -2.6738 H   0  0  0  0  0  0  0  0  0  0  0  0
   -2.1943   -1.9067   -2.6767 H   0  0  0  0  0  0  0  0  0  0  0  0
   -0.1853   -3.1712   -2.6540 H   0  0  0  0  0  0  0  0  0  0  0  0
  1  2  2  0  0  0  0
  1  6  1  0  0  0  0
  1 26  1  0  0  0  0
  2  3  1  0  0  0  0
  2 27  1  0  0  0  0
  3  4  2  0  0  0  0
  3  9  1  0  0  0  0
  4  5  1  0  0  0  0
  4  8  1  0  0  0  0
  5  6  2  0  0  0  0
  5 28  1  0  0  0  0
  6  7  1  0  0  0  0
  9 10  1  0  0  0  0
  9 29  1  0  0  0  0
  9 30  1  0  0  0  0
 10 11  1  0  0  0  0
 11 12  1  0  0  0  0
 11 18  1  0  0  0  0
 11 31  1  0  0  0  0
 12 13  1  0  0  0  0
 12 32  1  0  0  0  0
 12 33  1  0  0  0  0
 13 14  1  0  0  0  0
 13 17  1  0  0  0  0
 14 15  2  0  0  0  0
 14 34  1  0  0  0  0
 15 16  1  0  0  0  0
 15 35  1  0  0  0  0
 16 17  2  0  0  0  0
 17 36  1  0  0  0  0
 18 19  2  0  0  0  0
 18 23  1  0  0  0  0
 19 20  1  0  0  0  0
 19 25  1  0  0  0  0
 20 21  2  0  0  0  0
 20 37  1  0  0  0  0
 21 22  1  0  0  0  0
 21 24  1  0  0  0  0
 22 23  2  0  0  0  0
 22 38  1  0  0  0  0
 23 39  1  0  0  0  0
M  END
$$$$

 OpenBabel05152416213D

 41 42  0  0  0  0  0  0  0  0999 V2000
    0.9599    0.0661   -0.0592 C   0  0  0  0  0  0  0  0  0  0  0  0
    0.2791   -0.8660   -0.7268 C   0  0  0  0  0  0  0  0  0  0  0  0
   -1.2223   -0.9042   -0.7435 C   0  0  0  0  0  0  0  0  0  0  0  0
   -1.7293   -0.7468   -2.1581 C   0  0  0  0  0  0  0  0  0  0  0  0
   -1.8821    0.5137   -2.7818 C   0  0  0  0  0  0  0  0  0  0  0  0
   -2.3763    0.5875   -4.0922 C   0  0  0  0  0  0  0  0  0  0  0  0
   -2.7049   -0.5734   -4.7993 C   0  0  0  0  0  0  0  0  0  0  0  0
   -2.5388   -1.8170   -4.1955 C   0  0  0  0  0  0  0  0  0  0  0  0
   -2.0583   -1.8972   -2.8812 C   0  0  0  0  0  0  0  0  0  0  0  0
   -2.9188   -3.3379   -5.0571 S   0  0  0  0  0  0  0  0  0  0  0  0
   -4.3701   -3.3221   -5.5604 O   0  0  0  0  0  0  0  0  0  0  0  0
   -2.1274   -3.4022   -6.3735 O   0  0  0  0  0  0  0  0  0  0  0  0
   -2.6233   -4.8029   -4.0843 C   0  0  0  0  0  0  0  0  0  0  0  0
   -3.3438   -4.9518   -2.8980 C   0  0  0  0  0  0  0  0  0  0  0  0
   -3.0500   -5.9867   -1.9969 C   0  0  0  0  0  0  0  0  0  0  0  0
   -2.0209   -6.9084   -2.3368 C   0  0  0  0  0  0  0  0  0  0  0  0
   -1.3219   -6.7561   -3.5426 C   0  0  0  0  0  0  0  0  0  0  0  0
   -1.6122   -5.7038   -4.4105 C   0  0  0  0  0  0  0  0  0  0  0  0
   -1.6589   -7.9393   -1.5406 O   0  0  0  0  0  0  0  0  0  0  0  0
   -3.8374   -6.0334   -0.7024 C   0  0  0  0  0  0  0  0  0  0  0  0
   -3.6292   -4.7731    0.1016 C   0  0  0  0  0  0  0  0  0  0  0  0
   -4.6531   -3.9905    0.4564 C   0  0  0  0  0  0  0  0  0  0  0  0
   -1.5743    1.6675   -2.1487 O   0  0  0  0  0  0  0  0  0  0  0  0
    0.4463    0.8449    0.4938 H   0  0  0  0  0  0  0  0  0  0  0  0
    2.0448    0.0532   -0.0700 H   0  0  0  0  0  0  0  0  0  0  0  0
    0.8245   -1.6317   -1.2736 H   0  0  0  0  0  0  0  0  0  0  0  0
   -1.5273   -1.8887   -0.3244 H   0  0  0  0  0  0  0  0  0  0  0  0
   -1.6915   -0.1426   -0.0850 H   0  0  0  0  0  0  0  0  0  0  0  0
   -2.5052    1.5503   -4.5668 H   0  0  0  0  0  0  0  0  0  0  0  0
   -3.0811   -0.5043   -5.8115 H   0  0  0  0  0  0  0  0  0  0  0  0
   -1.9184   -2.8573   -2.4084 H   0  0  0  0  0  0  0  0  0  0  0  0
   -4.1070   -4.2209   -2.6530 H   0  0  0  0  0  0  0  0  0  0  0  0
   -0.5275   -7.4457   -3.7965 H   0  0  0  0  0  0  0  0  0  0  0  0
   -1.0317   -5.5795   -5.3158 H   0  0  0  0  0  0  0  0  0  0  0  0
   -2.0604   -8.1585   -0.6941 H   0  0  0  0  0  0  0  0  0  0  0  0
   -4.9122   -6.1745   -0.9465 H   0  0  0  0  0  0  0  0  0  0  0  0
   -3.5423   -6.8683   -0.0493 H   0  0  0  0  0  0  0  0  0  0  0  0
   -2.6237   -4.4990    0.4111 H   0  0  0  0  0  0  0  0  0  0  0  0
   -4.4790   -3.0947    1.0440 H   0  0  0  0  0  0  0  0  0  0  0  0
   -5.6709   -4.2401    0.1732 H   0  0  0  0  0  0  0  0  0  0  0  0
   -1.2161    1.7079   -1.2539 H   0  0  0  0  0  0  0  0  0  0  0  0
  1  2  2  0  0  0  0
  1 24  1  0  0  0  0
  1 25  1  0  0  0  0
  2  3  1  0  0  0  0
  2 26  1  0  0  0  0
  3  4  1  0  0  0  0
  3 27  1  0  0  0  0
  3 28  1  0  0  0  0
  4  5  2  0  0  0  0
  4  9  1  0  0  0  0
  5  6  1  0  0  0  0
  5 23  1  0  0  0  0
  6  7  2  0  0  0  0
  6 29  1  0  0  0  0
  7  8  1  0  0  0  0
  7 30  1  0  0  0  0
  8  9  2  0  0  0  0
  8 10  1  0  0  0  0
  9 31  1  0  0  0  0
 10 11  2  0  0  0  0
 10 12  2  0  0  0  0
 10 13  1  0  0  0  0
 13 14  2  0  0  0  0
 13 18  1  0  0  0  0
 14 15  1  0  0  0  0
 14 32  1  0  0  0  0
 15 16  2  0  0  0  0
 15 20  1  0  0  0  0
 16 17  1  0  0  0  0
 16 19  1  0  0  0  0
 17 18  2  0  0  0  0
 17 33  1  0  0  0  0
 18 34  1  0  0  0  0
 19 35  1  0  0  0  0
 20 21  1  0  0  0  0
 20 36  1  0  0  0  0
 20 37  1  0  0  0  0
 21 22  2  0  0  0  0
 21 38  1  0  0  0  0
 22 39  1  0  0  0  0
 22 40  1  0  0  0  0
 23 41  1  0  0  0  0
M  END
$$$$

 OpenBabel05152416213D

 75 74  0  0  0  0  0  0  0  0999 V2000
    1.9167   -1.4930    0.0066 C   0  0  0  0  0  0  0  0  0  0  0  0
    1.3411    2.1104   -0.8069 C   0  0  0  0  0  0  0  0  0  0  0  0
   -0.8000    1.9325   -0.3253 C   0  0  0  0  0  0  0  0  0  0  0  0
   -1.6139    0.2296   -0.0694 C   0  0  0  0  0  0  0  0  0  0  0  0
   -1.3375   -1.5660   -0.0264 C   0  0  0  0  0  0  0  0  0  0  0  0
    1.0850   -2.0120    0.0080 C   0  0  0  0  0  0  0  0  0  0  0  0
    1.2328   -2.4745   -0.0190 C   0  0  0  0  0  0  0  0  0  0  0  0
   -0.2515   -3.9553   -0.6289 N   0  0  0  0  0  0  0  0  0  0  0  0
    2.6399   -3.2709    0.3403 N   0  0  0  0  0  0  0  0  0  0  0  0
   -1.1767    2.6034    0.3331 O   0  0  0  0  0  0  0  0  0  0  0  0
   -2.4314    2.7078    0.5205 C   0  0  0  0  0  0  0  0  0  0  0  0
   -3.1616    2.3799   -0.7550 C   0  0  0  0  0  0  0  0  0  0  0  0
   -3.0605    1.3779   -1.1302 C   0  0  0  0  0  0  0  0  0  0  0  0
   -3.7778   -0.0791    0.1679 C   0  0  0  0  0  0  0  0  0  0  0  0
   -4.9018    0.1697    0.2427 C   0  0  0  0  0  0  0  0  0  0  0  0
   -5.5159   -0.1805   -0.9594 O   0  0  0  0  0  0  0  0  0  0  0  0
   -5.3141    0.4694   -2.1793 C   0  0  0  0  0  0  0  0  0  0  0  0
   -6.2087    1.0247   -2.9739 C   0  0  0  0  0  0  0  0  0  0  0  0
   -5.7784    1.5445   -4.2411 C   0  0  0  0  0  0  0  0  0  0  0  0
   -4.4542    1.8162   -4.4878 C   0  0  0  0  0  0  0  0  0  0  0  0
   -3.6052    1.2900   -3.7045 C   0  0  0  0  0  0  0  0  0  0  0  0
   -4.3356    0.4333   -2.7264 C   0  0  0  0  0  0  0  0  0  0  0  0
   -4.0501    2.6404   -5.6678 C   0  0  0  0  0  0  0  0  0  0  0  0
   -4.9636    3.1125   -6.4725 N   0  0  0  0  0  0  0  0  0  0  0  0
   -2.6478    2.9271   -5.9117 N   0  0  0  0  0  0  0  0  0  0  0  0
    1.6918    0.3295   -0.5799 C   0  0  0  0  0  0  0  0  0  0  0  0
    0.5498   -1.1558   -1.9551 C   0  0  0  0  0  0  0  0  0  0  0  0
    1.2125   -2.8778   -2.1064 S   0  0  0  0  0  0  0  0  0  0  0  0
    0.7050   -3.9553    0.9728 O   0  0  0  0  0  0  0  0  0  0  0  0
    0.5538   -3.3016   -2.5802 O   0  0  0  0  0  0  0  0  0  0  0  0
    2.9467   -2.4755   -1.7347 O   0  0  0  0  0  0  0  0  0  0  0  0
    1.0843   -0.7609    2.3393 O   0  0  0  0  0  0  0  0  0  0  0  0
    0.0749   -0.1938    0.8471 C   0  0  0  0  0  0  0  0  0  0  0  0
    0.4155    1.4146    1.4763 C   0  0  0  0  0  0  0  0  0  0  0  0
    0.9302    3.8585    0.4396 S   0  0  0  0  0  0  0  0  0  0  0  0
    0.1174    3.3184   -1.7513 O   0  0  0  0  0  0  0  0  0  0  0  0
    0.3768    3.9977    0.9373 O   0  0  0  0  0  0  0  0  0  0  0  0
    3.0325    2.9054    0.2170 O   0  0  0  0  0  0  0  0  0  0  0  0
   -0.0739    0.7503   -1.6884 O   0  0  0  0  0  0  0  0  0  0  0  0
    2.6618   -1.2671    0.5008 H   0  0  0  0  0  0  0  0  0  0  0  0
    1.5272    2.3030   -0.4942 H   0  0  0  0  0  0  0  0  0  0  0  0
   -1.8918    0.3143    0.0435 H   0  0  0  0  0  0  0  0  0  0  0  0
   -1.6149   -1.9509    0.0507 H   0  0  0  0  0  0  0  0  0  0  0  0
   -0.9608   -3.6225   -0.1377 H   0  0  0  0  0  0  0  0  0  0  0  0
    3.5179   -2.5256    0.0981 H   0  0  0  0  0  0  0  0  0  0  0  0
    2.8156   -3.9654    0.0504 H   0  0  0  0  0  0  0  0  0  0  0  0
   -2.7760    2.0997    1.3364 H   0  0  0  0  0  0  0  0  0  0  0  0
   -2.6201    3.7335    0.7367 H   0  0  0  0  0  0  0  0  0  0  0  0
   -4.1889    2.4573   -0.6503 H   0  0  0  0  0  0  0  0  0  0  0  0
   -2.7751    2.9301   -1.5711 H   0  0  0  0  0  0  0  0  0  0  0  0
   -2.8470    1.1606   -1.8529 H   0  0  0  0  0  0  0  0  0  0  0  0
   -1.9670    0.8716   -1.7344 H   0  0  0  0  0  0  0  0  0  0  0  0
   -3.2878   -1.0717   -0.0984 H   0  0  0  0  0  0  0  0  0  0  0  0
   -3.1014    0.2234    1.2065 H   0  0  0  0  0  0  0  0  0  0  0  0
   -5.2130   -0.4301    1.0579 H   0  0  0  0  0  0  0  0  0  0  0  0
   -5.0567    1.2078    0.4697 H   0  0  0  0  0  0  0  0  0  0  0  0
   -7.2341    1.0500   -2.6870 H   0  0  0  0  0  0  0  0  0  0  0  0
   -6.4522    1.6934   -4.9776 H   0  0  0  0  0  0  0  0  0  0  0  0
   -2.4964    1.3671   -3.8247 H   0  0  0  0  0  0  0  0  0  0  0  0
   -3.1924   -0.4991   -1.7728 H   0  0  0  0  0  0  0  0  0  0  0  0
   -5.9586    2.9237   -6.3130 H   0  0  0  0  0  0  0  0  0  0  0  0
   -1.9182    2.5661   -5.2850 H   0  0  0  0  0  0  0  0  0  0  0  0
   -2.3616    3.4950   -6.7181 H   0  0  0  0  0  0  0  0  0  0  0  0
    1.0354    0.5587   -0.3208 H   0  0  0  0  0  0  0  0  0  0  0  0
    2.8041    0.3771   -0.3803 H   0  0  0  0  0  0  0  0  0  0  0  0
   -0.4355   -0.9258   -1.4833 H   0  0  0  0  0  0  0  0  0  0  0  0
    1.1226   -0.5998   -2.3240 H   0  0  0  0  0  0  0  0  0  0  0  0
    3.2980   -3.3867   -1.4850 H   0  0  0  0  0  0  0  0  0  0  0  0
    0.9162   -1.6897    1.8868 H   0  0  0  0  0  0  0  0  0  0  0  0
    0.1823   -0.5670    0.6471 H   0  0  0  0  0  0  0  0  0  0  0  0
    2.0157    0.1632    1.2440 H   0  0  0  0  0  0  0  0  0  0  0  0
   -0.6014    1.0999    1.4659 H   0  0  0  0  0  0  0  0  0  0  0  0
    0.8133    1.1656    1.8944 H   0  0  0  0  0  0  0  0  0  0  0  0
    3.1031    3.5200   -0.4457 H   0  0  0  0  0  0  0  0  0  0  0  0
    0.6272    0.9725   -2.0596 H   0  0  0  0  0  0  0  0  0  0  0  0
  1  2  2  0  0  0  0
  1  6  1  0  0  0  0
  1 40  1  0  0  0  0
  2  3  1  0  0  0  0
  2 41  1  0  0  0  0
  3  4  2  0  0  0  0
  3 10  1  0  0  0  0
  4  5  1  0  0  0  0
  4 42  1  0  0  0  0
  5  6  2  0  0  0  0
  5 43  1  0  0  0  0
  6  7  1  0  0  0  0
  7  8  2  0  0  0  0
  7  9  1  0  0  0  0
  8 44  1  0  0  0  0
  9 45  1  0  0  0  0
  9 46  1  0  0  0  0
 10 11  1  0  0  0  0
 11 12  1  0  0  0  0
 11 47  1  0  0  0  0
 11 48  1  0  0  0  0
 12 13  1  0  0  0  0
 12 49  1  0  0  0  0
 12 50  1  0  0  0  0
 13 14  1  0  0  0  0
 13 51  1  0  0  0  0
 13 52  1  0  0  0  0
 14 15  1  0  0  0  0
 14 53  1  0  0  0  0
 14 54  1  0  0  0  0
 15 16  1  0  0  0  0
 15 55  1  0  0  0  0
 15 56  1  0  0  0  0
 16 17  1  0  0  0  0
 17 18  2  0  0  0  0
 17 22  1  0  0  0  0
 18 19  1  0  0  0  0
 18 57  1  0  0  0  0
 19 20  2  0  0  0  0
 19 58  1  0  0  0  0
 20 21  1  0  0  0  0
 20 23  1  0  0  0  0
 21 22  2  0  0  0  0
 21 59  1  0  0  0  0
 22 60  1  0  0  0  0
 23 24  2  0  0  0  0
 23 25  1  0  0  0  0
 24 61  1  0  0  0  0
 25 62  1  0  0  0  0
 25 63  1  0  0  0  0
 26 27  1  0  0  0  0
 26 32  1  0  0  0  0
 26 64  1  0  0  0  0
 26 65  1  0  0  0  0
 27 28  1  0  0  0  0
 27 66  1  0  0  0  0
 27 67  1  0  0  0  0
 28 29  2  0  0  0  0
 28 30  2  0  0  0  0
 28 31  1  0  0  0  0
 31 68  1  0  0  0  0
 32 69  1  0  0  0  0
 33 34  1  0  0  0  0
 33 39  1  0  0  0  0
 33 70  1  0  0  0  0
 33 71  1  0  0  0  0
 34 35  1  0  0  0  0
 34 72  1  0  0  0  0
 34 73  1  0  0  0  0
 35 36  2  0  0  0  0
 35 37  2  0  0  0  0
 35 38  1  0  0  0  0
 38 74  1  0  0  0  0
 39 75  1  0  0  0  0
M  END
$$$$

 OpenBabel05152416213D

 44 45  0  0  0  0  0  0  0  0999 V2000
    1.4910    1.7159   -0.0386 C   0  0  0  0  0  0  0  0  0  0  0  0
   -0.3378    1.6157   -0.6177 C   0  0  0  0  0  0  0  0  0  0  0  0
   -1.2741   -0.1486   -0.4414 C   0  0  0  0  0  0  0  0  0  0  0  0
   -0.2397   -1.7778    0.0816 C   0  0  0  0  0  0  0  0  0  0  0  0
    1.6072   -1.6970    0.3509 C   0  0  0  0  0  0  0  0  0  0  0  0
    2.5260   -0.1295    0.3622 C   0  0  0  0  0  0  0  0  0  0  0  0
    4.0673   -0.4285    0.1660 C   0  0  0  0  0  0  0  0  0  0  0  0
    4.7707   -1.0304    1.7399 S   0  0  0  0  0  0  0  0  0  0  0  0
    3.9202    0.0904    3.0260 C   0  0  0  0  0  0  0  0  0  0  0  0
    4.5450    1.5635    3.1065 C   0  0  0  0  0  0  0  0  0  0  0  0
    4.3749    2.5368    1.9478 N   0  0  0  0  0  0  0  0  0  0  0  0
    3.9266    2.1689    0.8738 C   0  0  0  0  0  0  0  0  0  0  0  0
    3.9172    2.9776   -0.1828 C   0  0  0  0  0  0  0  0  0  0  0  0
    4.1746    4.1448    0.3811 N   0  0  0  0  0  0  0  0  0  0  0  0
    4.4676    3.8198    1.6940 C   0  0  0  0  0  0  0  0  0  0  0  0
    2.3656    0.0711    3.1559 C   0  0  0  0  0  0  0  0  0  0  0  0
    1.5519    1.2616    3.2679 C   0  0  0  0  0  0  0  0  0  0  0  0
    0.1802    1.1729    3.3321 C   0  0  0  0  0  0  0  0  0  0  0  0
   -0.4777   -0.0528    3.2702 C   0  0  0  0  0  0  0  0  0  0  0  0
    0.2618   -1.2268    3.1396 C   0  0  0  0  0  0  0  0  0  0  0  0
    1.6713   -1.1768    3.1232 C   0  0  0  0  0  0  0  0  0  0  0  0
   -2.2181   -0.0388    3.0767 Cl  0  0  0  0  0  0  0  0  0  0  0  0
    1.9758    2.9755    3.2950 Cl  0  0  0  0  0  0  0  0  0  0  0  0
   -2.9552   -0.2547   -0.2943 Cl  0  0  0  0  0  0  0  0  0  0  0  0
    0.9024   -0.1377   -1.1036 N   0  3  0  0  0  0  0  0  0  0  0  0
    0.4228   -0.9049   -1.9060 O   0  0  0  0  0  0  0  0  0  0  0  0
    0.4961    0.1241    0.6579 O   0  0  0  0  0  0  0  0  0  0  0  0
    1.9872    0.3373   -1.7848 O   0  5  0  0  0  0  0  0  0  0  0  0
    1.7156    2.7936   -0.0760 H   0  0  0  0  0  0  0  0  0  0  0  0
   -0.7247    2.5971   -0.9059 H   0  0  0  0  0  0  0  0  0  0  0  0
   -0.5667   -2.7535    0.0851 H   0  0  0  0  0  0  0  0  0  0  0  0
    2.2436   -2.5787    0.2293 H   0  0  0  0  0  0  0  0  0  0  0  0
    4.2706   -0.8664   -0.8366 H   0  0  0  0  0  0  0  0  0  0  0  0
    4.7565    0.3645   -0.2234 H   0  0  0  0  0  0  0  0  0  0  0  0
    4.2138   -0.4593    3.9505 H   0  0  0  0  0  0  0  0  0  0  0  0
    4.1313    1.9690    4.0280 H   0  0  0  0  0  0  0  0  0  0  0  0
    5.6164    1.4131    3.1857 H   0  0  0  0  0  0  0  0  0  0  0  0
    3.5663    1.4499    1.0452 H   0  0  0  0  0  0  0  0  0  0  0  0
    3.4555    2.7377   -1.1840 H   0  0  0  0  0  0  0  0  0  0  0  0
    4.6174    4.4625    2.4714 H   0  0  0  0  0  0  0  0  0  0  0  0
   -0.3858    2.0974    3.2507 H   0  0  0  0  0  0  0  0  0  0  0  0
   -0.2634   -2.1615    2.9654 H   0  0  0  0  0  0  0  0  0  0  0  0
    2.2055   -2.1123    2.9824 H   0  0  0  0  0  0  0  0  0  0  0  0
   -0.1555    0.7136    1.2113 H   0  0  0  0  0  0  0  0  0  0  0  0
  1  2  2  0  0  0  0
  1  6  1  0  0  0  0
  1 29  1  0  0  0  0
  2  3  1  0  0  0  0
  2 30  1  0  0  0  0
  3  4  2  0  0  0  0
  3 24  1  0  0  0  0
  4  5  1  0  0  0  0
  4 31  1  0  0  0  0
  5  6  2  0  0  0  0
  5 32  1  0  0  0  0
  6  7  1  0  0  0  0
  7  8  1  0  0  0  0
  7 33  1  0  0  0  0
  7 34  1  0  0  0  0
  8  9  1  0  0  0  0
  9 10  1  0  0  0  0
  9 16  1  0  0  0  0
  9 35  1  0  0  0  0
 10 11  1  0  0  0  0
 10 36  1  0  0  0  0
 10 37  1  0  0  0  0
 11 12  1  0  0  0  0
 11 15  1  0  0  0  0
 12 13  2  0  0  0  0
 12 38  1  0  0  0  0
 13 14  1  0  0  0  0
 13 39  1  0  0  0  0
 14 15  2  0  0  0  0
 15 40  1  0  0  0  0
 16 17  2  0  0  0  0
 16 21  1  0  0  0  0
 17 18  1  0  0  0  0
 17 23  1  0  0  0  0
 18 19  2  0  0  0  0
 18 41  1  0  0  0  0
 19 20  1  0  0  0  0
 19 22  1  0  0  0  0
 20 21  2  0  0  0  0
 20 42  1  0  0  0  0
 21 43  1  0  0  0  0
 25 26  2  0  0  0  0
 25 27  1  0  0  0  0
 25 28  1  0  0  0  0
 27 44  1  0  0  0  0
M  CHG  2  25   1  28  -1
M  END
$$$$

 OpenBabel05152416213D

 37 39  0  0  0  0  0  0  0  0999 V2000
    1.0495    0.0862    0.0843 C   0  0  0  0  0  0  0  0  0  0  0  0
    0.4137    0.1237   -1.6742 Si  0  0  0  0  0  0  0  0  0  0  0  0
    1.0553   -1.3978   -2.5947 C   0  0  0  0  0  0  0  0  0  0  0  0
    0.6528   -2.6566   -1.9636 N   0  0  0  0  0  0  0  0  0  0  0  0
    0.9832   -3.8948   -2.3659 C   0  0  0  0  0  0  0  0  0  0  0  0
    0.4414   -4.8195   -1.5470 N   0  0  0  0  0  0  0  0  0  0  0  0
   -0.2258   -4.0805   -0.6388 C   0  0  0  0  0  0  0  0  0  0  0  0
   -0.0930   -2.7706   -0.8866 N   0  0  0  0  0  0  0  0  0  0  0  0
   -1.4518    0.1301   -1.6665 C   0  0  0  0  0  0  0  0  0  0  0  0
   -2.1759   -0.6817   -0.7771 C   0  0  0  0  0  0  0  0  0  0  0  0
   -3.5683   -0.6919   -0.7966 C   0  0  0  0  0  0  0  0  0  0  0  0
   -4.2589    0.1258   -1.6895 C   0  0  0  0  0  0  0  0  0  0  0  0
   -3.5527    0.9568   -2.5633 C   0  0  0  0  0  0  0  0  0  0  0  0
   -2.1550    0.9586   -2.5551 C   0  0  0  0  0  0  0  0  0  0  0  0
   -5.6133    0.1179   -1.7011 F   0  0  0  0  0  0  0  0  0  0  0  0
    0.9818    1.6835   -2.5002 C   0  0  0  0  0  0  0  0  0  0  0  0
    0.5043    2.9025   -2.0015 C   0  0  0  0  0  0  0  0  0  0  0  0
    0.8453    4.1017   -2.6273 C   0  0  0  0  0  0  0  0  0  0  0  0
    1.6818    4.0932   -3.7460 C   0  0  0  0  0  0  0  0  0  0  0  0
    2.1848    2.8824   -4.2342 C   0  0  0  0  0  0  0  0  0  0  0  0
    1.8338    1.6757   -3.6164 C   0  0  0  0  0  0  0  0  0  0  0  0
    2.0001    5.2591   -4.3596 F   0  0  0  0  0  0  0  0  0  0  0  0
    0.6941   -0.8329    0.5919 H   0  0  0  0  0  0  0  0  0  0  0  0
    0.6763    0.9683    0.6393 H   0  0  0  0  0  0  0  0  0  0  0  0
    2.1584    0.0790    0.0752 H   0  0  0  0  0  0  0  0  0  0  0  0
    0.6711   -1.3629   -3.6379 H   0  0  0  0  0  0  0  0  0  0  0  0
    2.1623   -1.3428   -2.6170 H   0  0  0  0  0  0  0  0  0  0  0  0
    1.6025   -4.1201   -3.2206 H   0  0  0  0  0  0  0  0  0  0  0  0
   -0.7973   -4.4755    0.1900 H   0  0  0  0  0  0  0  0  0  0  0  0
   -1.6872   -1.3019   -0.0484 H   0  0  0  0  0  0  0  0  0  0  0  0
   -4.1071   -1.3334   -0.1115 H   0  0  0  0  0  0  0  0  0  0  0  0
   -4.0873    1.5973   -3.2510 H   0  0  0  0  0  0  0  0  0  0  0  0
   -1.6307    1.6001   -3.2505 H   0  0  0  0  0  0  0  0  0  0  0  0
   -0.1551    2.9211   -1.1424 H   0  0  0  0  0  0  0  0  0  0  0  0
    0.4505    5.0349   -2.2482 H   0  0  0  0  0  0  0  0  0  0  0  0
    2.8369    2.8792   -5.0984 H   0  0  0  0  0  0  0  0  0  0  0  0
    2.2221    0.7479   -4.0155 H   0  0  0  0  0  0  0  0  0  0  0  0
  1  2  1  0  0  0  0
  1 23  1  0  0  0  0
  1 24  1  0  0  0  0
  1 25  1  0  0  0  0
  2  3  1  0  0  0  0
  2  9  1  0  0  0  0
  2 16  1  0  0  0  0
  3  4  1  0  0  0  0
  3 26  1  0  0  0  0
  3 27  1  0  0  0  0
  4  5  1  0  0  0  0
  4  8  1  0  0  0  0
  5  6  2  0  0  0  0
  5 28  1  0  0  0  0
  6  7  1  0  0  0  0
  7  8  2  0  0  0  0
  7 29  1  0  0  0  0
  9 10  2  0  0  0  0
  9 14  1  0  0  0  0
 10 11  1  0  0  0  0
 10 30  1  0  0  0  0
 11 12  2  0  0  0  0
 11 31  1  0  0  0  0
 12 13  1  0  0  0  0
 12 15  1  0  0  0  0
 13 14  2  0  0  0  0
 13 32  1  0  0  0  0
 14 33  1  0  0  0  0
 16 17  2  0  0  0  0
 16 21  1  0  0  0  0
 17 18  1  0  0  0  0
 17 34  1  0  0  0  0
 18 19  2  0  0  0  0
 18 35  1  0  0  0  0
 19 20  1  0  0  0  0
 19 22  1  0  0  0  0
 20 21  2  0  0  0  0
 20 36  1  0  0  0  0
 21 37  1  0  0  0  0
M  END
$$$$

 OpenBabel05152416213D

 37 39  0  0  0  0  0  0  0  0999 V2000
    0.5737    1.5711    0.1236 C   0  0  0  0  0  0  0  0  0  0  0  0
    1.5936    0.4671    0.3566 C   0  0  0  0  0  0  0  0  0  0  0  0
    1.3193   -0.7619   -0.3927 N   0  0  0  0  0  0  0  0  0  0  0  0
    0.2833   -1.5874    0.2525 C   0  0  0  0  0  0  0  0  0  0  0  0
   -1.1484   -1.2038   -0.1434 C   0  0  0  0  0  0  0  0  0  0  0  0
   -1.5223    0.1580    0.2885 N   0  0  0  0  0  0  0  0  0  0  0  0
   -0.7621    1.1602   -0.4755 C   0  0  0  0  0  0  0  0  0  0  0  0
   -3.2777    0.4212   -0.0297 S   0  0  0  0  0  0  0  0  0  0  0  0
   -3.4609    0.2055   -1.5403 O   0  0  0  0  0  0  0  0  0  0  0  0
   -3.9731   -0.8201    0.5507 O   0  0  0  0  0  0  0  0  0  0  0  0
   -3.9116    2.0418    0.5305 C   0  0  0  0  0  0  0  0  0  0  0  0
   -3.4188    3.1819   -0.1387 C   0  0  0  0  0  0  0  0  0  0  0  0
   -3.6705    4.4636    0.3152 C   0  0  0  0  0  0  0  0  0  0  0  0
   -4.4963    4.6629    1.4071 C   0  0  0  0  0  0  0  0  0  0  0  0
   -5.1030    3.5652    2.0354 C   0  0  0  0  0  0  0  0  0  0  0  0
   -4.8113    2.2391    1.6156 C   0  0  0  0  0  0  0  0  0  0  0  0
   -5.4503    1.1803    2.2956 C   0  0  0  0  0  0  0  0  0  0  0  0
   -6.3533    1.4531    3.3210 C   0  0  0  0  0  0  0  0  0  0  0  0
   -6.6081    2.7285    3.6924 N   0  0  0  0  0  0  0  0  0  0  0  0
   -6.0007    3.7827    3.0854 C   0  0  0  0  0  0  0  0  0  0  0  0
    0.9931    2.2992   -0.6077 H   0  0  0  0  0  0  0  0  0  0  0  0
    0.4292    2.1247    1.0807 H   0  0  0  0  0  0  0  0  0  0  0  0
    2.5934    0.8696    0.0860 H   0  0  0  0  0  0  0  0  0  0  0  0
    1.6420    0.2414    1.4429 H   0  0  0  0  0  0  0  0  0  0  0  0
    1.1331   -0.5917   -1.4094 H   0  0  0  0  0  0  0  0  0  0  0  0
    0.3790   -1.5630    1.3615 H   0  0  0  0  0  0  0  0  0  0  0  0
    0.4468   -2.6386   -0.0589 H   0  0  0  0  0  0  0  0  0  0  0  0
   -1.8098   -1.9434    0.3561 H   0  0  0  0  0  0  0  0  0  0  0  0
   -1.2823   -1.3256   -1.2420 H   0  0  0  0  0  0  0  0  0  0  0  0
   -1.2441    2.1113   -0.4203 H   0  0  0  0  0  0  0  0  0  0  0  0
   -0.6851    0.8817   -1.5506 H   0  0  0  0  0  0  0  0  0  0  0  0
   -2.8109    3.1110   -1.0226 H   0  0  0  0  0  0  0  0  0  0  0  0
   -3.2136    5.3052   -0.1917 H   0  0  0  0  0  0  0  0  0  0  0  0
   -4.6806    5.6749    1.7404 H   0  0  0  0  0  0  0  0  0  0  0  0
   -5.3100    0.1506    2.0538 H   0  0  0  0  0  0  0  0  0  0  0  0
   -6.8599    0.6345    3.8171 H   0  0  0  0  0  0  0  0  0  0  0  0
   -6.2359    4.7856    3.4113 H   0  0  0  0  0  0  0  0  0  0  0  0
  1  2  1  0  0  0  0
  1  7  1  0  0  0  0
  1 21  1  0  0  0  0
  1 22  1  0  0  0  0
  2  3  1  0  0  0  0
  2 23  1  0  0  0  0
  2 24  1  0  0  0  0
  3  4  1  0  0  0  0
  3 25  1  0  0  0  0
  4  5  1  0  0  0  0
  4 26  1  0  0  0  0
  4 27  1  0  0  0  0
  5  6  1  0  0  0  0
  5 28  1  0  0  0  0
  5 29  1  0  0  0  0
  6  7  1  0  0  0  0
  6  8  1  0  0  0  0
  7 30  1  0  0  0  0
  7 31  1  0  0  0  0
  8  9  2  0  0  0  0
  8 10  2  0  0  0  0
  8 11  1  0  0  0  0
 11 12  2  0  0  0  0
 11 16  1  0  0  0  0
 12 13  1  0  0  0  0
 12 32  1  0  0  0  0
 13 14  2  0  0  0  0
 13 33  1  0  0  0  0
 14 15  1  0  0  0  0
 14 34  1  0  0  0  0
 15 16  2  0  0  0  0
 15 20  1  0  0  0  0
 16 17  1  0  0  0  0
 17 18  2  0  0  0  0
 17 35  1  0  0  0  0
 18 19  1  0  0  0  0
 18 36  1  0  0  0  0
 19 20  2  0  0  0  0
 20 37  1  0  0  0  0
M  END
$$$$

 OpenBabel05152416213D

 84 89  0  0  1  0  0  0  0  0999 V2000
    0.9056    3.8427    0.9978 C   0  0  0  0  0  0  0  0  0  0  0  0
    0.4759    2.5606    0.3830 O   0  0  0  0  0  0  0  0  0  0  0  0
    1.3200    1.3153    0.3939 C   0  0  1  0  0  0  0  0  0  0  0  0
    1.8907    0.6704   -1.0843 C   0  0  1  0  0  0  0  0  0  0  0  0
    3.4965    0.8974   -1.3253 C   0  0  0  0  0  0  0  0  0  0  0  0
    4.2277    2.0760   -0.7167 C   0  0  2  0  0  0  0  0  0  0  0  0
    5.5286    1.7870    0.1066 C   0  0  0  0  0  0  0  0  0  0  0  0
    5.9131    2.9188    0.9545 N   0  0  0  0  0  0  0  0  0  0  0  0
    7.0890    2.7243    1.7924 C   0  0  0  0  0  0  0  0  0  0  0  0
    7.8727    4.0194    1.6332 C   0  0  0  0  0  0  0  0  0  0  0  0
    6.9425    5.1783    1.8961 C   0  0  0  0  0  0  0  0  0  0  0  0
    5.5608    5.0699    1.9262 C   0  0  0  0  0  0  0  0  0  0  0  0
    4.9065    3.7777    1.6107 C   0  0  1  0  0  0  0  0  0  0  0  0
    3.8636    4.0436    0.6159 C   0  0  0  0  0  0  0  0  0  0  0  0
    3.2812    2.6860    0.1969 C   0  0  2  0  0  0  0  0  0  0  0  0
    2.5903    1.5832    1.2160 C   0  0  2  0  0  0  0  0  0  0  0  0
    3.2809    0.2217    1.6634 C   0  0  0  0  0  0  0  0  0  0  0  0
    3.8174    0.1796    2.7611 O   0  0  0  0  0  0  0  0  0  0  0  0
    3.2495   -0.9514    0.9416 O   0  0  0  0  0  0  0  0  0  0  0  0
    4.4070   -1.6716    0.5851 C   0  0  0  0  0  0  0  0  0  0  0  0
    4.9848    6.2542    2.1762 N   0  0  0  0  0  0  0  0  0  0  0  0
    5.9810    7.1229    2.2811 C   0  0  0  0  0  0  0  0  0  0  0  0
    7.2029    6.4934    2.1119 C   0  0  0  0  0  0  0  0  0  0  0  0
    8.3999    7.1696    2.1797 C   0  0  0  0  0  0  0  0  0  0  0  0
    8.3523    8.5471    2.4391 C   0  0  0  0  0  0  0  0  0  0  0  0
    7.1061    9.2135    2.6080 C   0  0  0  0  0  0  0  0  0  0  0  0
    5.9045    8.4778    2.5168 C   0  0  0  0  0  0  0  0  0  0  0  0
    7.1079   10.5434    2.8599 O   0  0  0  0  0  0  0  0  0  0  0  0
    5.9641   11.2948    3.0433 C   0  0  0  0  0  0  0  0  0  0  0  0
    1.6163   -0.7419   -1.2990 O   0  0  0  0  0  0  0  0  0  0  0  0
    2.3817   -1.7521   -1.9462 C   0  0  0  0  0  0  0  0  0  0  0  0
    3.3962   -1.4767   -2.5741 O   0  0  0  0  0  0  0  0  0  0  0  0
    2.0171   -3.2215   -2.0184 C   0  0  0  0  0  0  0  0  0  0  0  0
    2.9319   -4.3066   -1.8049 C   0  0  0  0  0  0  0  0  0  0  0  0
    2.5114   -5.6688   -1.8906 C   0  0  0  0  0  0  0  0  0  0  0  0
    1.1678   -5.9420   -2.2621 C   0  0  0  0  0  0  0  0  0  0  0  0
    0.2992   -4.8678   -2.5395 C   0  0  0  0  0  0  0  0  0  0  0  0
    0.7276   -3.5377   -2.4006 C   0  0  0  0  0  0  0  0  0  0  0  0
   -0.9632   -5.1393   -2.9413 O   0  0  0  0  0  0  0  0  0  0  0  0
   -1.9106   -4.2173   -3.2911 C   0  0  0  0  0  0  0  0  0  0  0  0
    0.7556   -7.2401   -2.3420 O   0  0  0  0  0  0  0  0  0  0  0  0
   -0.4892   -7.7331   -2.6700 C   0  0  0  0  0  0  0  0  0  0  0  0
    3.4038   -6.6750   -1.6033 O   0  0  0  0  0  0  0  0  0  0  0  0
    3.1440   -8.0472   -1.5903 C   0  0  0  0  0  0  0  0  0  0  0  0
    1.3176    4.4774    0.1900 H   0  0  0  0  0  0  0  0  0  0  0  0
    1.5412    3.8295    1.9268 H   0  0  0  0  0  0  0  0  0  0  0  0
    0.1591    4.5994    1.3215 H   0  0  0  0  0  0  0  0  0  0  0  0
    0.6036    0.5827    0.8332 H   0  0  0  0  0  0  0  0  0  0  0  0
    1.2977    1.2138   -1.8446 H   0  0  0  0  0  0  0  0  0  0  0  0
    4.0318    0.5885   -2.2268 H   0  0  0  0  0  0  0  0  0  0  0  0
    3.9001    0.1872   -0.7201 H   0  0  0  0  0  0  0  0  0  0  0  0
    4.4593    2.7829   -1.5488 H   0  0  0  0  0  0  0  0  0  0  0  0
    5.4293    0.9604    0.7991 H   0  0  0  0  0  0  0  0  0  0  0  0
    6.3528    1.5828   -0.6042 H   0  0  0  0  0  0  0  0  0  0  0  0
    6.7904    2.5585    2.8612 H   0  0  0  0  0  0  0  0  0  0  0  0
    7.6897    1.8487    1.4742 H   0  0  0  0  0  0  0  0  0  0  0  0
    8.7301    4.0040    2.3263 H   0  0  0  0  0  0  0  0  0  0  0  0
    8.2087    4.0825    0.5742 H   0  0  0  0  0  0  0  0  0  0  0  0
    4.4241    3.3521    2.5251 H   0  0  0  0  0  0  0  0  0  0  0  0
    4.2920    4.5510   -0.2891 H   0  0  0  0  0  0  0  0  0  0  0  0
    3.1824    4.8109    0.9971 H   0  0  0  0  0  0  0  0  0  0  0  0
    2.5578    3.0462   -0.5697 H   0  0  0  0  0  0  0  0  0  0  0  0
    2.3645    2.0385    2.1988 H   0  0  0  0  0  0  0  0  0  0  0  0
    5.2793   -1.0175    0.4552 H   0  0  0  0  0  0  0  0  0  0  0  0
    4.6777   -2.4635    1.2898 H   0  0  0  0  0  0  0  0  0  0  0  0
    4.3494   -2.0596   -0.4497 H   0  0  0  0  0  0  0  0  0  0  0  0
    3.9493    6.4804    2.2415 H   0  0  0  0  0  0  0  0  0  0  0  0
    9.3354    6.6402    2.0461 H   0  0  0  0  0  0  0  0  0  0  0  0
    9.2787    9.0936    2.5113 H   0  0  0  0  0  0  0  0  0  0  0  0
    4.9251    8.9336    2.6326 H   0  0  0  0  0  0  0  0  0  0  0  0
    5.3360   11.2542    2.1270 H   0  0  0  0  0  0  0  0  0  0  0  0
    5.3871   10.9042    3.9104 H   0  0  0  0  0  0  0  0  0  0  0  0
    6.2416   12.3467    3.2433 H   0  0  0  0  0  0  0  0  0  0  0  0
    3.9680   -4.1148   -1.5373 H   0  0  0  0  0  0  0  0  0  0  0  0
    0.0678   -2.7214   -2.6335 H   0  0  0  0  0  0  0  0  0  0  0  0
   -2.0990   -3.5451   -2.4287 H   0  0  0  0  0  0  0  0  0  0  0  0
   -1.5572   -3.6440   -4.1745 H   0  0  0  0  0  0  0  0  0  0  0  0
   -2.8422   -4.7550   -3.5478 H   0  0  0  0  0  0  0  0  0  0  0  0
   -1.2464   -7.3519   -1.9517 H   0  0  0  0  0  0  0  0  0  0  0  0
   -0.7372   -7.4502   -3.7142 H   0  0  0  0  0  0  0  0  0  0  0  0
   -0.4808   -8.8391   -2.6033 H   0  0  0  0  0  0  0  0  0  0  0  0
    2.3414   -8.2879   -0.8546 H   0  0  0  0  0  0  0  0  0  0  0  0
    2.8460   -8.3983   -2.6040 H   0  0  0  0  0  0  0  0  0  0  0  0
    4.0377   -8.6316   -1.2926 H   0  0  0  0  0  0  0  0  0  0  0  0
  1  2  1  0  0  0  0
  1 45  1  0  0  0  0
  1 46  1  0  0  0  0
  1 47  1  0  0  0  0
  3  4  1  0  0  0  0
  3 16  1  0  0  0  0
  3 48  1  1  0  0  0
  3  2  1  0  0  0  0
  4  5  1  0  0  0  0
  4 30  1  0  0  0  0
  4 49  1  6  0  0  0
  5  6  1  0  0  0  0
  5 50  1  0  0  0  0
  5 51  1  0  0  0  0
  6  7  1  0  0  0  0
  6 15  1  0  0  0  0
  6 52  1  6  0  0  0
  7  8  1  0  0  0  0
  7 53  1  0  0  0  0
  7 54  1  0  0  0  0
  8  9  1  0  0  0  0
  8 13  1  0  0  0  0
  9 10  1  0  0  0  0
  9 55  1  0  0  0  0
  9 56  1  0  0  0  0
 10 11  1  0  0  0  0
 10 57  1  0  0  0  0
 10 58  1  0  0  0  0
 11 12  2  0  0  0  0
 11 23  1  0  0  0  0
 12 13  1  0  0  0  0
 12 21  1  0  0  0  0
 13 14  1  0  0  0  0
 13 59  1  1  0  0  0
 14 15  1  0  0  0  0
 14 60  1  0  0  0  0
 14 61  1  0  0  0  0
 15 16  1  0  0  0  0
 15 62  1  6  0  0  0
 16 63  1  1  0  0  0
 16 17  1  0  0  0  0
 17 18  2  0  0  0  0
 17 19  1  0  0  0  0
 19 20  1  0  0  0  0
 20 64  1  0  0  0  0
 20 65  1  0  0  0  0
 20 66  1  0  0  0  0
 21 22  1  0  0  0  0
 21 67  1  0  0  0  0
 22 23  2  0  0  0  0
 22 27  1  0  0  0  0
 23 24  1  0  0  0  0
 24 25  2  0  0  0  0
 24 68  1  0  0  0  0
 25 26  1  0  0  0  0
 25 69  1  0  0  0  0
 26 27  2  0  0  0  0
 26 28  1  0  0  0  0
 27 70  1  0  0  0  0
 28 29  1  0  0  0  0
 29 71  1  0  0  0  0
 29 72  1  0  0  0  0
 29 73  1  0  0  0  0
 30 31  1  0  0  0  0
 31 32  2  0  0  0  0
 31 33  1  0  0  0  0
 33 34  2  0  0  0  0
 33 38  1  0  0  0  0
 34 35  1  0  0  0  0
 34 74  1  0  0  0  0
 35 36  2  0  0  0  0
 35 43  1  0  0  0  0
 36 37  1  0  0  0  0
 36 41  1  0  0  0  0
 37 38  2  0  0  0  0
 37 39  1  0  0  0  0
 38 75  1  0  0  0  0
 39 40  1  0  0  0  0
 40 76  1  0  0  0  0
 40 77  1  0  0  0  0
 40 78  1  0  0  0  0
 41 42  1  0  0  0  0
 42 79  1  0  0  0  0
 42 80  1  0  0  0  0
 42 81  1  0  0  0  0
 43 44  1  0  0  0  0
 44 82  1  0  0  0  0
 44 83  1  0  0  0  0
 44 84  1  0  0  0  0
M  END
$$$$

 OpenBabel05152416213D

 39 40  0  0  0  0  0  0  0  0999 V2000
    0.8932    0.2332    0.5825 C   0  0  0  0  0  0  0  0  0  0  0  0
    0.4747    1.6108   -0.1550 C   0  0  0  0  0  0  0  0  0  0  0  0
    0.9949    2.0961   -1.6563 C   0  0  0  0  0  0  0  0  0  0  0  0
    0.4830    1.2538   -2.7209 N   0  0  0  0  0  0  0  0  0  0  0  0
   -0.2892    1.5541   -3.8883 C   0  0  0  0  0  0  0  0  0  0  0  0
    0.4977    1.2188   -5.1237 C   0  0  0  0  0  0  0  0  0  0  0  0
    1.3475    0.1963   -4.7360 O   0  0  0  0  0  0  0  0  0  0  0  0
    2.1599   -0.9533   -4.4292 C   0  0  0  0  0  0  0  0  0  0  0  0
    2.7126   -2.1393   -4.9017 C   0  0  0  0  0  0  0  0  0  0  0  0
    3.2232   -3.1639   -3.9273 C   0  0  0  0  0  0  0  0  0  0  0  0
    3.1409   -2.9985   -2.5370 C   0  0  0  0  0  0  0  0  0  0  0  0
    2.3889   -2.0972   -2.1888 C   0  0  0  0  0  0  0  0  0  0  0  0
    1.9073   -1.3462   -3.2257 C   0  0  0  0  0  0  0  0  0  0  0  0
   -1.6118   -0.3772   -2.0968 Cl  0  0  0  0  0  0  0  0  0  0  0  0
    3.7562   -3.8314   -1.1560 Cl  0  0  0  0  0  0  0  0  0  0  0  0
    2.5850   -2.6042   -6.5168 Cl  0  0  0  0  0  0  0  0  0  0  0  0
    0.4893    0.0948   -2.4326 C   0  0  0  0  0  0  0  0  0  0  0  0
    1.2983   -0.1485   -1.5341 O   0  0  0  0  0  0  0  0  0  0  0  0
   -0.2090   -1.3277   -3.5312 N   0  0  0  0  0  0  0  0  0  0  0  0
   -0.1740   -1.5423   -4.9952 C   0  0  0  0  0  0  0  0  0  0  0  0
   -0.5713   -2.6910   -5.3895 C   0  0  0  0  0  0  0  0  0  0  0  0
   -0.8337   -3.4281   -4.2932 N   0  0  0  0  0  0  0  0  0  0  0  0
   -0.5469   -2.6605   -3.1681 C   0  0  0  0  0  0  0  0  0  0  0  0
    0.3173   -0.6671    0.1025 H   0  0  0  0  0  0  0  0  0  0  0  0
    0.5469   -0.1580    1.4516 H   0  0  0  0  0  0  0  0  0  0  0  0
    2.0408    0.1145    0.4300 H   0  0  0  0  0  0  0  0  0  0  0  0
   -0.6105    1.5843   -0.1594 H   0  0  0  0  0  0  0  0  0  0  0  0
    0.8793    2.3175    0.5053 H   0  0  0  0  0  0  0  0  0  0  0  0
    0.6269    3.0267   -1.9294 H   0  0  0  0  0  0  0  0  0  0  0  0
    2.1266    1.9785   -1.6695 H   0  0  0  0  0  0  0  0  0  0  0  0
   -1.2350    0.9551   -4.0523 H   0  0  0  0  0  0  0  0  0  0  0  0
   -0.5661    2.5483   -3.7849 H   0  0  0  0  0  0  0  0  0  0  0  0
   -0.2521    1.2393   -5.9784 H   0  0  0  0  0  0  0  0  0  0  0  0
    1.3778    1.7497   -5.2498 H   0  0  0  0  0  0  0  0  0  0  0  0
    3.6490   -4.0095   -4.1845 H   0  0  0  0  0  0  0  0  0  0  0  0
    2.0944   -2.0252   -1.0638 H   0  0  0  0  0  0  0  0  0  0  0  0
    0.4575   -1.1454   -5.9773 H   0  0  0  0  0  0  0  0  0  0  0  0
   -0.5192   -2.7670   -6.5024 H   0  0  0  0  0  0  0  0  0  0  0  0
   -0.5721   -3.1274   -2.1934 H   0  0  0  0  0  0  0  0  0  0  0  0
  1  2  1  0  0  0  0
  1 24  1  0  0  0  0
  1 25  1  0  0  0  0
  1 26  1  0  0  0  0
  2  3  1  0  0  0  0
  2 27  1  0  0  0  0
  2 28  1  0  0  0  0
  3  4  1  0  0  0  0
  3 29  1  0  0  0  0
  3 30  1  0  0  0  0
  4  5  1  0  0  0  0
  4 17  1  0  0  0  0
  5  6  1  0  0  0  0
  5 31  1  0  0  0  0
  5 32  1  0  0  0  0
  6  7  1  0  0  0  0
  6 33  1  0  0  0  0
  6 34  1  0  0  0  0
  7  8  1  0  0  0  0
  8  9  2  0  0  0  0
  8 13  1  0  0  0  0
  9 10  1  0  0  0  0
  9 16  1  0  0  0  0
 10 11  2  0  0  0  0
 10 35  1  0  0  0  0
 11 12  1  0  0  0  0
 11 15  1  0  0  0  0
 12 13  2  0  0  0  0
 12 36  1  0  0  0  0
 13 14  1  0  0  0  0
 17 18  2  0  0  0  0
 17 19  1  0  0  0  0
 19 20  1  0  0  0  0
 19 23  1  0  0  0  0
 20 21  2  0  0  0  0
 20 37  1  0  0  0  0
 21 22  1  0  0  0  0
 21 38  1  0  0  0  0
 22 23  2  0  0  0  0
 23 39  1  0  0  0  0
M  END
$$$$

 OpenBabel05152416213D

 38 40  0  0  1  0  0  0  0  0999 V2000
    0.9098    0.1213   -0.0202 C   0  0  0  0  0  0  0  0  0  0  0  0
    0.4319   -1.2855   -0.3855 C   0  0  0  0  0  0  0  0  0  0  0  0
    0.8998   -2.2181    0.5249 O   0  0  0  0  0  0  0  0  0  0  0  0
    2.2053   -2.5596    0.6486 C   0  0  0  0  0  0  0  0  0  0  0  0
    3.0083   -2.0964   -0.1562 O   0  0  0  0  0  0  0  0  0  0  0  0
    2.7298   -3.5131    1.7343 C   0  0  1  0  0  0  0  0  0  0  0  0
    1.6150   -4.1849    2.6968 C   0  0  2  0  0  0  0  0  0  0  0  0
    1.7097   -5.6306    2.3117 C   0  0  0  0  0  0  0  0  0  0  0  0
    1.0057   -6.7526    2.7941 C   0  0  0  0  0  0  0  0  0  0  0  0
    1.3130   -8.0219    2.2656 C   0  0  0  0  0  0  0  0  0  0  0  0
    2.3052   -8.1523    1.2783 C   0  0  0  0  0  0  0  0  0  0  0  0
    3.0022   -7.0190    0.8272 C   0  0  0  0  0  0  0  0  0  0  0  0
    2.6846   -5.7700    1.3721 C   0  0  0  0  0  0  0  0  0  0  0  0
    3.2741   -4.6062    1.0645 O   0  0  0  0  0  0  0  0  0  0  0  0
    0.2548   -3.6738    2.5044 N   0  0  0  0  0  0  0  0  0  0  0  0
    3.8782   -2.7645    2.4701 C   0  0  0  0  0  0  0  0  0  0  0  0
    5.0546   -2.4116    1.7470 C   0  0  0  0  0  0  0  0  0  0  0  0
    6.1176   -1.7399    2.3586 C   0  0  0  0  0  0  0  0  0  0  0  0
    6.0432   -1.3976    3.7038 C   0  0  0  0  0  0  0  0  0  0  0  0
    4.8982   -1.7104    4.4342 C   0  0  0  0  0  0  0  0  0  0  0  0
    3.8268   -2.3821    3.8308 C   0  0  0  0  0  0  0  0  0  0  0  0
    0.5489    0.3857    0.9958 H   0  0  0  0  0  0  0  0  0  0  0  0
    0.5136    0.8536   -0.7532 H   0  0  0  0  0  0  0  0  0  0  0  0
    2.0174    0.1909   -0.0311 H   0  0  0  0  0  0  0  0  0  0  0  0
   -0.6769   -1.2978   -0.3735 H   0  0  0  0  0  0  0  0  0  0  0  0
    0.7702   -1.5538   -1.4119 H   0  0  0  0  0  0  0  0  0  0  0  0
    1.8607   -4.1829    3.7739 H   0  0  0  0  0  0  0  0  0  0  0  0
    0.2450   -6.6635    3.5598 H   0  0  0  0  0  0  0  0  0  0  0  0
    0.7911   -8.9068    2.6152 H   0  0  0  0  0  0  0  0  0  0  0  0
    2.5364   -9.1305    0.8714 H   0  0  0  0  0  0  0  0  0  0  0  0
    3.7719   -7.1192    0.0747 H   0  0  0  0  0  0  0  0  0  0  0  0
    0.1776   -2.7468    2.9845 H   0  0  0  0  0  0  0  0  0  0  0  0
   -0.4511   -4.3076    2.9447 H   0  0  0  0  0  0  0  0  0  0  0  0
    5.1690   -2.6545    0.6990 H   0  0  0  0  0  0  0  0  0  0  0  0
    7.0038   -1.4849    1.7877 H   0  0  0  0  0  0  0  0  0  0  0  0
    6.8710   -0.8845    4.1784 H   0  0  0  0  0  0  0  0  0  0  0  0
    4.8383   -1.4274    5.4763 H   0  0  0  0  0  0  0  0  0  0  0  0
    2.9710   -2.5725    4.4516 H   0  0  0  0  0  0  0  0  0  0  0  0
  1  2  1  0  0  0  0
  1 22  1  0  0  0  0
  1 23  1  0  0  0  0
  1 24  1  0  0  0  0
  2  3  1  0  0  0  0
  2 25  1  0  0  0  0
  2 26  1  0  0  0  0
  3  4  1  0  0  0  0
  4  5  2  0  0  0  0
  6  4  1  6  0  0  0
  6  7  1  0  0  0  0
  6 14  1  0  0  0  0
  6 16  1  0  0  0  0
  7  8  1  0  0  0  0
  7 27  1  1  0  0  0
  7 15  1  0  0  0  0
  8  9  2  0  0  0  0
  8 13  1  0  0  0  0
  9 10  1  0  0  0  0
  9 28  1  0  0  0  0
 10 11  2  0  0  0  0
 10 29  1  0  0  0  0
 11 12  1  0  0  0  0
 11 30  1  0  0  0  0
 12 13  2  0  0  0  0
 12 31  1  0  0  0  0
 13 14  1  0  0  0  0
 15 32  1  0  0  0  0
 15 33  1  0  0  0  0
 16 17  2  0  0  0  0
 16 21  1  0  0  0  0
 17 18  1  0  0  0  0
 17 34  1  0  0  0  0
 18 19  2  0  0  0  0
 18 35  1  0  0  0  0
 19 20  1  0  0  0  0
 19 36  1  0  0  0  0
 20 21  2  0  0  0  0
 20 37  1  0  0  0  0
 21 38  1  0  0  0  0
M  END
$$$$

 OpenBabel05152416213D

 35 37  0  0  0  0  0  0  0  0999 V2000
    0.6992    1.2791    0.0061 C   0  0  0  0  0  0  0  0  0  0  0  0
    1.4142    0.0806   -0.0072 C   0  0  0  0  0  0  0  0  0  0  0  0
    0.7399   -1.1637   -0.0561 C   0  0  0  0  0  0  0  0  0  0  0  0
   -0.6722   -1.1152   -0.1266 C   0  0  0  0  0  0  0  0  0  0  0  0
   -1.3381    0.0623   -0.0990 N   0  0  0  0  0  0  0  0  0  0  0  0
   -0.6908    1.2514   -0.0243 C   0  0  0  0  0  0  0  0  0  0  0  0
    1.5226   -2.4962   -0.0231 C   0  0  0  0  0  0  0  0  0  0  0  0
    1.1916   -3.2146    1.3103 C   0  0  0  0  0  0  0  0  0  0  0  0
   -0.1157   -3.6852    1.5942 C   0  0  0  0  0  0  0  0  0  0  0  0
   -0.4260   -4.2952    2.8003 C   0  0  0  0  0  0  0  0  0  0  0  0
    0.5600   -4.4709    3.7629 C   0  0  0  0  0  0  0  0  0  0  0  0
    1.8667   -4.0511    3.5039 C   0  0  0  0  0  0  0  0  0  0  0  0
    2.1832   -3.4277    2.2930 C   0  0  0  0  0  0  0  0  0  0  0  0
    0.1505   -5.2245    5.2892 Cl  0  0  0  0  0  0  0  0  0  0  0  0
    1.2064   -3.3486   -1.2597 C   0  0  0  0  0  0  0  0  0  0  0  0
    1.3861   -2.8022   -2.5474 C   0  0  0  0  0  0  0  0  0  0  0  0
    1.1348   -3.5753   -3.6874 C   0  0  0  0  0  0  0  0  0  0  0  0
    0.7046   -4.8998   -3.5572 C   0  0  0  0  0  0  0  0  0  0  0  0
    0.5306   -5.4523   -2.2914 C   0  0  0  0  0  0  0  0  0  0  0  0
    0.7842   -4.6927   -1.1584 C   0  0  0  0  0  0  0  0  0  0  0  0
    0.3981   -5.8837   -4.9734 Cl  0  0  0  0  0  0  0  0  0  0  0  0
    2.9045   -2.1998   -0.0697 O   0  0  0  0  0  0  0  0  0  0  0  0
    1.2188    2.2278    0.0476 H   0  0  0  0  0  0  0  0  0  0  0  0
    2.4938    0.1387    0.0294 H   0  0  0  0  0  0  0  0  0  0  0  0
   -1.2681   -1.9973   -0.2191 H   0  0  0  0  0  0  0  0  0  0  0  0
   -1.2629    2.1664   -0.0002 H   0  0  0  0  0  0  0  0  0  0  0  0
   -0.9184   -3.6246    0.8904 H   0  0  0  0  0  0  0  0  0  0  0  0
   -1.4409   -4.6312    2.9744 H   0  0  0  0  0  0  0  0  0  0  0  0
    2.6405   -4.2010    4.2428 H   0  0  0  0  0  0  0  0  0  0  0  0
    3.2063   -3.1128    2.1422 H   0  0  0  0  0  0  0  0  0  0  0  0
    1.7258   -1.7798   -2.6689 H   0  0  0  0  0  0  0  0  0  0  0  0
    1.2796   -3.1471   -4.6705 H   0  0  0  0  0  0  0  0  0  0  0  0
    0.2074   -6.4778   -2.1719 H   0  0  0  0  0  0  0  0  0  0  0  0
    0.6591   -5.1923   -0.2136 H   0  0  0  0  0  0  0  0  0  0  0  0
    3.4089   -3.0531   -0.1547 H   0  0  0  0  0  0  0  0  0  0  0  0
  1  2  2  0  0  0  0
  1  6  1  0  0  0  0
  1 23  1  0  0  0  0
  2  3  1  0  0  0  0
  2 24  1  0  0  0  0
  3  4  2  0  0  0  0
  3  7  1  0  0  0  0
  4  5  1  0  0  0  0
  4 25  1  0  0  0  0
  5  6  2  0  0  0  0
  6 26  1  0  0  0  0
  7  8  1  0  0  0  0
  7 15  1  0  0  0  0
  7 22  1  0  0  0  0
  8  9  2  0  0  0  0
  8 13  1  0  0  0  0
  9 10  1  0  0  0  0
  9 27  1  0  0  0  0
 10 11  2  0  0  0  0
 10 28  1  0  0  0  0
 11 12  1  0  0  0  0
 11 14  1  0  0  0  0
 12 13  2  0  0  0  0
 12 29  1  0  0  0  0
 13 30  1  0  0  0  0
 15 16  2  0  0  0  0
 15 20  1  0  0  0  0
 16 17  1  0  0  0  0
 16 31  1  0  0  0  0
 17 18  2  0  0  0  0
 17 32  1  0  0  0  0
 18 19  1  0  0  0  0
 18 21  1  0  0  0  0
 19 20  2  0  0  0  0
 19 33  1  0  0  0  0
 20 34  1  0  0  0  0
 22 35  1  0  0  0  0
M  END
$$$$

 OpenBabel05152416213D

 27 30  0  0  0  0  0  0  0  0999 V2000
   -3.7139    0.7152   -0.0211 C   0  0  0  0  0  0  0  0  0  0  0  0
   -3.3267   -0.6281    0.0060 C   0  0  0  0  0  0  0  0  0  0  0  0
   -1.9665   -0.9699    0.0107 C   0  0  0  0  0  0  0  0  0  0  0  0
   -0.9906    0.0524    0.0034 C   0  0  0  0  0  0  0  0  0  0  0  0
   -1.3867    1.4089   -0.0096 C   0  0  0  0  0  0  0  0  0  0  0  0
   -2.7521    1.7298   -0.0298 C   0  0  0  0  0  0  0  0  0  0  0  0
   -0.4117    2.4159   -0.0066 C   0  0  0  0  0  0  0  0  0  0  0  0
    0.9471    2.0874    0.0064 C   0  0  0  0  0  0  0  0  0  0  0  0
    1.3590    0.7416    0.0022 C   0  0  0  0  0  0  0  0  0  0  0  0
    2.7251    0.3945   -0.0076 C   0  0  0  0  0  0  0  0  0  0  0  0
    3.0995   -0.9586   -0.0311 C   0  0  0  0  0  0  0  0  0  0  0  0
    2.1328   -1.9661   -0.0332 C   0  0  0  0  0  0  0  0  0  0  0  0
    0.7713   -1.6391   -0.0102 C   0  0  0  0  0  0  0  0  0  0  0  0
    0.3808   -0.2806    0.0010 C   0  0  0  0  0  0  0  0  0  0  0  0
   -0.2061   -2.6452   -0.0024 C   0  0  0  0  0  0  0  0  0  0  0  0
   -1.5641   -2.3140    0.0153 C   0  0  0  0  0  0  0  0  0  0  0  0
    3.6731    1.3560   -0.0016 O   0  0  0  0  0  0  0  0  0  0  0  0
   -4.7654    0.9709   -0.0370 H   0  0  0  0  0  0  0  0  0  0  0  0
   -4.0891   -1.3978    0.0142 H   0  0  0  0  0  0  0  0  0  0  0  0
   -3.0750    2.7639   -0.0536 H   0  0  0  0  0  0  0  0  0  0  0  0
   -0.6997    3.4606   -0.0149 H   0  0  0  0  0  0  0  0  0  0  0  0
    1.6737    2.8903    0.0103 H   0  0  0  0  0  0  0  0  0  0  0  0
    4.1469   -1.2320   -0.0489 H   0  0  0  0  0  0  0  0  0  0  0  0
    2.4496   -3.0022   -0.0539 H   0  0  0  0  0  0  0  0  0  0  0  0
    0.0808   -3.6902   -0.0107 H   0  0  0  0  0  0  0  0  0  0  0  0
   -2.3000   -3.1091    0.0231 H   0  0  0  0  0  0  0  0  0  0  0  0
    4.6186    1.1498   -0.0090 H   0  0  0  0  0  0  0  0  0  0  0  0
  1  2  2  0  0  0  0
  1  6  1  0  0  0  0
  1 18  1  0  0  0  0
  2  3  1  0  0  0  0
  2 19  1  0  0  0  0
  3  4  2  0  0  0  0
  3 16  1  0  0  0  0
  4  5  1  0  0  0  0
  4 14  1  0  0  0  0
  5  6  2  0  0  0  0
  5  7  1  0  0  0  0
  6 20  1  0  0  0  0
  7  8  2  0  0  0  0
  7 21  1  0  0  0  0
  8  9  1  0  0  0  0
  8 22  1  0  0  0  0
  9 10  2  0  0  0  0
  9 14  1  0  0  0  0
 10 11  1  0  0  0  0
 10 17  1  0  0  0  0
 11 12  2  0  0  0  0
 11 23  1  0  0  0  0
 12 13  1  0  0  0  0
 12 24  1  0  0  0  0
 13 14  2  0  0  0  0
 13 15  1  0  0  0  0
 15 16  2  0  0  0  0
 15 25  1  0  0  0  0
 16 26  1  0  0  0  0
 17 27  1  0  0  0  0
M  END
$$$$

 OpenBabel05152416213D

 37 39  0  0  0  0  0  0  0  0999 V2000
    0.9008   -0.0908    0.0678 C   0  0  0  0  0  0  0  0  0  0  0  0
    0.3012    1.6514    0.4617 Si  0  0  0  0  0  0  0  0  0  0  0  0
    0.9477    2.9109   -0.7905 C   0  0  0  0  0  0  0  0  0  0  0  0
    0.4665    2.6680   -2.1510 N   0  0  0  0  0  0  0  0  0  0  0  0
    0.5294    1.5322   -2.8667 C   0  0  0  0  0  0  0  0  0  0  0  0
    0.0201    1.7018   -4.0952 N   0  0  0  0  0  0  0  0  0  0  0  0
   -0.3384    2.9988   -4.1009 C   0  0  0  0  0  0  0  0  0  0  0  0
   -0.0808    3.5987   -2.9221 N   0  0  0  0  0  0  0  0  0  0  0  0
   -1.5468    1.6740    0.4530 C   0  0  0  0  0  0  0  0  0  0  0  0
   -2.2477    1.0497   -0.5894 C   0  0  0  0  0  0  0  0  0  0  0  0
   -3.6450    1.0424   -0.5885 C   0  0  0  0  0  0  0  0  0  0  0  0
   -4.3474    1.6712    0.4435 C   0  0  0  0  0  0  0  0  0  0  0  0
   -3.6523    2.3016    1.4788 C   0  0  0  0  0  0  0  0  0  0  0  0
   -2.2564    2.2968    1.4890 C   0  0  0  0  0  0  0  0  0  0  0  0
   -5.7024    1.6685    0.4418 F   0  0  0  0  0  0  0  0  0  0  0  0
    0.9185    2.0677    2.1669 C   0  0  0  0  0  0  0  0  0  0  0  0
    0.8994    3.3890    2.6357 C   0  0  0  0  0  0  0  0  0  0  0  0
    1.3284    3.6776    3.9361 C   0  0  0  0  0  0  0  0  0  0  0  0
    1.7622    2.6486    4.7780 C   0  0  0  0  0  0  0  0  0  0  0  0
    1.7819    1.3323    4.3167 C   0  0  0  0  0  0  0  0  0  0  0  0
    1.3712    1.0435    3.0166 C   0  0  0  0  0  0  0  0  0  0  0  0
    2.1588    2.9253    6.0438 F   0  0  0  0  0  0  0  0  0  0  0  0
    0.4584   -0.4943   -0.8547 H   0  0  0  0  0  0  0  0  0  0  0  0
    0.5905   -0.8050    0.8476 H   0  0  0  0  0  0  0  0  0  0  0  0
    2.0097   -0.0670   -0.0218 H   0  0  0  0  0  0  0  0  0  0  0  0
    0.6386    3.9321   -0.4684 H   0  0  0  0  0  0  0  0  0  0  0  0
    2.0549    2.8669   -0.7687 H   0  0  0  0  0  0  0  0  0  0  0  0
    0.9336    0.6015   -2.5289 H   0  0  0  0  0  0  0  0  0  0  0  0
   -0.7592    3.4947   -4.9635 H   0  0  0  0  0  0  0  0  0  0  0  0
   -1.7196    0.5514   -1.3919 H   0  0  0  0  0  0  0  0  0  0  0  0
   -4.1823    0.5472   -1.3867 H   0  0  0  0  0  0  0  0  0  0  0  0
   -4.1927    2.7930    2.2768 H   0  0  0  0  0  0  0  0  0  0  0  0
   -1.7398    2.7903    2.2992 H   0  0  0  0  0  0  0  0  0  0  0  0
    0.5558    4.1938    1.9992 H   0  0  0  0  0  0  0  0  0  0  0  0
    1.3163    4.6980    4.2941 H   0  0  0  0  0  0  0  0  0  0  0  0
    2.1080    0.5297    4.9661 H   0  0  0  0  0  0  0  0  0  0  0  0
    1.3892    0.0130    2.7011 H   0  0  0  0  0  0  0  0  0  0  0  0
  1  2  1  0  0  0  0
  1 23  1  0  0  0  0
  1 24  1  0  0  0  0
  1 25  1  0  0  0  0
  2  3  1  0  0  0  0
  2  9  1  0  0  0  0
  2 16  1  0  0  0  0
  3  4  1  0  0  0  0
  3 26  1  0  0  0  0
  3 27  1  0  0  0  0
  4  5  1  0  0  0  0
  4  8  1  0  0  0  0
  5  6  2  0  0  0  0
  5 28  1  0  0  0  0
  6  7  1  0  0  0  0
  7  8  2  0  0  0  0
  7 29  1  0  0  0  0
  9 10  2  0  0  0  0
  9 14  1  0  0  0  0
 10 11  1  0  0  0  0
 10 30  1  0  0  0  0
 11 12  2  0  0  0  0
 11 31  1  0  0  0  0
 12 13  1  0  0  0  0
 12 15  1  0  0  0  0
 13 14  2  0  0  0  0
 13 32  1  0  0  0  0
 14 33  1  0  0  0  0
 16 17  2  0  0  0  0
 16 21  1  0  0  0  0
 17 18  1  0  0  0  0
 17 34  1  0  0  0  0
 18 19  2  0  0  0  0
 18 35  1  0  0  0  0
 19 20  1  0  0  0  0
 19 22  1  0  0  0  0
 20 21  2  0  0  0  0
 20 36  1  0  0  0  0
 21 37  1  0  0  0  0
M  END
$$$$

 OpenBabel05152416213D

 39 41  0  0  1  0  0  0  0  0999 V2000
    1.0027    0.0808   -0.0583 C   0  0  0  0  0  0  0  0  0  0  0  0
    0.3824    1.3582   -0.6575 C   0  0  2  0  0  0  0  0  0  0  0  0
    1.0486    2.5885   -0.1265 C   0  0  0  0  0  0  0  0  0  0  0  0
    2.0153    3.1713   -0.6027 O   0  0  0  0  0  0  0  0  0  0  0  0
    0.3749    3.0382    0.9332 N   0  0  0  0  0  0  0  0  0  0  0  0
   -0.8771    2.3493    0.9199 C   0  0  0  0  0  0  0  0  0  0  0  0
   -0.9425    1.4748   -0.0374 N   0  0  0  0  0  0  0  0  0  0  0  0
   -2.2888    2.8758    1.9514 S   0  0  0  0  0  0  0  0  0  0  0  0
   -3.4870    1.5262    1.7578 C   0  0  0  0  0  0  0  0  0  0  0  0
    0.7743    4.0934    1.7224 N   0  0  0  0  0  0  0  0  0  0  0  0
    0.2300    4.3537    3.0075 C   0  0  0  0  0  0  0  0  0  0  0  0
   -0.0517    5.6702    3.3863 C   0  0  0  0  0  0  0  0  0  0  0  0
   -0.6101    5.9347    4.6401 C   0  0  0  0  0  0  0  0  0  0  0  0
   -0.8724    4.8858    5.5264 C   0  0  0  0  0  0  0  0  0  0  0  0
   -0.5722    3.5707    5.1632 C   0  0  0  0  0  0  0  0  0  0  0  0
   -0.0194    3.3020    3.9085 C   0  0  0  0  0  0  0  0  0  0  0  0
    0.4919    1.2319   -2.1713 C   0  0  0  0  0  0  0  0  0  0  0  0
   -0.6197    1.0321   -3.0002 C   0  0  0  0  0  0  0  0  0  0  0  0
   -0.4367    0.8054   -4.3729 C   0  0  0  0  0  0  0  0  0  0  0  0
    0.8481    0.8054   -4.9297 C   0  0  0  0  0  0  0  0  0  0  0  0
    1.9587    1.0230   -4.1187 C   0  0  0  0  0  0  0  0  0  0  0  0
    1.7849    1.2200   -2.7523 C   0  0  0  0  0  0  0  0  0  0  0  0
    0.5499   -0.8111   -0.5481 H   0  0  0  0  0  0  0  0  0  0  0  0
    0.7733    0.0015    1.0267 H   0  0  0  0  0  0  0  0  0  0  0  0
    2.1020    0.0412   -0.1900 H   0  0  0  0  0  0  0  0  0  0  0  0
   -3.9142    1.5603    0.7388 H   0  0  0  0  0  0  0  0  0  0  0  0
   -3.0825    0.5326    2.0402 H   0  0  0  0  0  0  0  0  0  0  0  0
   -4.3147    1.7438    2.4710 H   0  0  0  0  0  0  0  0  0  0  0  0
    1.5925    4.6628    1.4424 H   0  0  0  0  0  0  0  0  0  0  0  0
    0.1299    6.4846    2.6954 H   0  0  0  0  0  0  0  0  0  0  0  0
   -0.8456    6.9515    4.9230 H   0  0  0  0  0  0  0  0  0  0  0  0
   -1.3071    5.0926    6.4950 H   0  0  0  0  0  0  0  0  0  0  0  0
   -0.7708    2.7592    5.8510 H   0  0  0  0  0  0  0  0  0  0  0  0
    0.2174    2.2800    3.6387 H   0  0  0  0  0  0  0  0  0  0  0  0
   -1.6166    1.0131   -2.5836 H   0  0  0  0  0  0  0  0  0  0  0  0
   -1.2906    0.6154   -5.0068 H   0  0  0  0  0  0  0  0  0  0  0  0
    0.9875    0.6279   -5.9877 H   0  0  0  0  0  0  0  0  0  0  0  0
    2.9578    1.0215   -4.5401 H   0  0  0  0  0  0  0  0  0  0  0  0
    2.6712    1.3510   -2.1427 H   0  0  0  0  0  0  0  0  0  0  0  0
  1 23  1  0  0  0  0
  1 24  1  0  0  0  0
  1 25  1  0  0  0  0
  2  1  1  1  0  0  0
  2  3  1  0  0  0  0
  2  7  1  0  0  0  0
  2 17  1  0  0  0  0
  3  4  2  0  0  0  0
  3  5  1  0  0  0  0
  5  6  1  0  0  0  0
  5 10  1  0  0  0  0
  6  7  2  0  0  0  0
  6  8  1  0  0  0  0
  8  9  1  0  0  0  0
  9 26  1  0  0  0  0
  9 27  1  0  0  0  0
  9 28  1  0  0  0  0
 10 11  1  0  0  0  0
 10 29  1  0  0  0  0
 11 12  2  0  0  0  0
 11 16  1  0  0  0  0
 12 13  1  0  0  0  0
 12 30  1  0  0  0  0
 13 14  2  0  0  0  0
 13 31  1  0  0  0  0
 14 15  1  0  0  0  0
 14 32  1  0  0  0  0
 15 16  2  0  0  0  0
 15 33  1  0  0  0  0
 16 34  1  0  0  0  0
 17 18  2  0  0  0  0
 17 22  1  0  0  0  0
 18 19  1  0  0  0  0
 18 35  1  0  0  0  0
 19 20  2  0  0  0  0
 19 36  1  0  0  0  0
 20 21  1  0  0  0  0
 20 37  1  0  0  0  0
 21 22  2  0  0  0  0
 21 38  1  0  0  0  0
 22 39  1  0  0  0  0
M  END
$$$$

 OpenBabel05152416213D

 16 17  0  0  0  0  0  0  0  0999 V2000
   -2.2733   -0.0394    0.0015 C   0  0  0  0  0  0  0  0  0  0  0  0
   -1.4942   -1.1534    0.0018 N   0  0  0  0  0  0  0  0  0  0  0  0
   -0.2445   -0.6577    0.0002 C   0  0  0  0  0  0  0  0  0  0  0  0
   -0.2712    0.6969   -0.0008 C   0  0  0  0  0  0  0  0  0  0  0  0
   -1.5496    1.1072    0.0000 N   0  0  0  0  0  0  0  0  0  0  0  0
    0.9212    1.4179   -0.0029 C   0  0  0  0  0  0  0  0  0  0  0  0
    0.9464    2.8519   -0.0043 S   0  0  0  0  0  0  0  0  0  0  0  0
    2.0882    0.7086   -0.0044 N   0  0  0  0  0  0  0  0  0  0  0  0
    2.0971   -0.6652   -0.0038 C   0  0  0  0  0  0  0  0  0  0  0  0
    0.9150   -1.3609   -0.0011 N   0  0  0  0  0  0  0  0  0  0  0  0
    3.3318   -1.3560   -0.0072 N   0  0  0  0  0  0  0  0  0  0  0  0
   -3.3556   -0.0641    0.0022 H   0  0  0  0  0  0  0  0  0  0  0  0
   -1.9155    2.0854   -0.0006 H   0  0  0  0  0  0  0  0  0  0  0  0
    0.9028   -2.4058   -0.0007 H   0  0  0  0  0  0  0  0  0  0  0  0
    3.3594   -2.3860   -0.0094 H   0  0  0  0  0  0  0  0  0  0  0  0
    4.2205   -0.8342   -0.0098 H   0  0  0  0  0  0  0  0  0  0  0  0
  1  2  2  0  0  0  0
  1  5  1  0  0  0  0
  1 12  1  0  0  0  0
  2  3  1  0  0  0  0
  3  4  2  0  0  0  0
  3 10  1  0  0  0  0
  4  5  1  0  0  0  0
  4  6  1  0  0  0  0
  5 13  1  0  0  0  0
  6  7  2  0  0  0  0
  6  8  1  0  0  0  0
  8  9  2  0  0  0  0
  9 10  1  0  0  0  0
  9 11  1  0  0  0  0
 10 14  1  0  0  0  0
 11 15  1  0  0  0  0
 11 16  1  0  0  0  0
M  END
$$$$

 OpenBabel05152416213D

 25 26  0  0  0  0  0  0  0  0999 V2000
    1.6632    1.1919   -0.0445 C   0  0  0  0  0  0  0  0  0  0  0  0
    0.2715    1.1766   -0.0463 C   0  0  0  0  0  0  0  0  0  0  0  0
   -0.4077   -0.0416   -0.0291 C   0  0  0  0  0  0  0  0  0  0  0  0
    0.3099   -1.2452   -0.0131 C   0  0  0  0  0  0  0  0  0  0  0  0
    1.7127   -1.2297   -0.0002 C   0  0  0  0  0  0  0  0  0  0  0  0
    2.3894   -0.0068   -0.0098 C   0  0  0  0  0  0  0  0  0  0  0  0
    4.1778    0.0848    0.0478 S   0  0  0  0  0  0  0  0  0  0  0  0
    4.7005   -0.7206    1.2477 O   0  0  0  0  0  0  0  0  0  0  0  0
    4.7744   -0.7044   -1.1282 O   0  0  0  0  0  0  0  0  0  0  0  0
    4.8627    1.7421    0.1037 C   0  0  0  0  0  0  0  0  0  0  0  0
    5.6716    2.2060   -0.9430 C   0  0  0  0  0  0  0  0  0  0  0  0
    6.1131    3.5336   -0.9549 C   0  0  0  0  0  0  0  0  0  0  0  0
    5.7330    4.4074    0.0765 C   0  0  0  0  0  0  0  0  0  0  0  0
    4.9353    3.9409    1.1257 C   0  0  0  0  0  0  0  0  0  0  0  0
    4.5079    2.6141    1.1516 C   0  0  0  0  0  0  0  0  0  0  0  0
    3.4956    2.0970    2.5013 Cl  0  0  0  0  0  0  0  0  0  0  0  0
    6.2279    6.0932    0.0790 Cl  0  0  0  0  0  0  0  0  0  0  0  0
    7.1177    4.0842   -2.2887 Cl  0  0  0  0  0  0  0  0  0  0  0  0
   -2.1608   -0.0520   -0.0259 Cl  0  0  0  0  0  0  0  0  0  0  0  0
    2.1653    2.1478   -0.0596 H   0  0  0  0  0  0  0  0  0  0  0  0
   -0.2681    2.1148   -0.0571 H   0  0  0  0  0  0  0  0  0  0  0  0
   -0.2156   -2.1894   -0.0036 H   0  0  0  0  0  0  0  0  0  0  0  0
    2.2635   -2.1606    0.0220 H   0  0  0  0  0  0  0  0  0  0  0  0
    5.9421    1.5452   -1.7562 H   0  0  0  0  0  0  0  0  0  0  0  0
    4.6341    4.6133    1.9180 H   0  0  0  0  0  0  0  0  0  0  0  0
  1  2  2  0  0  0  0
  1  6  1  0  0  0  0
  1 20  1  0  0  0  0
  2  3  1  0  0  0  0
  2 21  1  0  0  0  0
  3  4  2  0  0  0  0
  3 19  1  0  0  0  0
  4  5  1  0  0  0  0
  4 22  1  0  0  0  0
  5  6  2  0  0  0  0
  5 23  1  0  0  0  0
  6  7  1  0  0  0  0
  7  8  2  0  0  0  0
  7  9  2  0  0  0  0
  7 10  1  0  0  0  0
 10 11  2  0  0  0  0
 10 15  1  0  0  0  0
 11 12  1  0  0  0  0
 11 24  1  0  0  0  0
 12 13  2  0  0  0  0
 12 18  1  0  0  0  0
 13 14  1  0  0  0  0
 13 17  1  0  0  0  0
 14 15  2  0  0  0  0
 14 25  1  0  0  0  0
 15 16  1  0  0  0  0
M  END
$$$$

 OpenBabel05152416213D

 42 44  0  0  0  0  0  0  0  0999 V2000
    3.4462    0.1129    0.0122 C   0  0  0  0  0  0  0  0  0  0  0  0
    1.9554   -0.0579    0.0366 C   0  0  0  0  0  0  0  0  0  0  0  0
    1.1894   -1.2450    0.0354 C   0  0  0  0  0  0  0  0  0  0  0  0
   -0.1214   -0.7895   -0.0100 C   0  0  0  0  0  0  0  0  0  0  0  0
   -0.0835    0.5917   -0.0382 C   0  0  0  0  0  0  0  0  0  0  0  0
    1.1603    1.0038    0.0172 O   0  0  0  0  0  0  0  0  0  0  0  0
   -1.2569    1.3757   -0.1526 C   0  0  0  0  0  0  0  0  0  0  0  0
   -2.4367    0.6242   -0.3795 C   0  0  0  0  0  0  0  0  0  0  0  0
   -2.4913   -0.7547   -0.2510 C   0  0  0  0  0  0  0  0  0  0  0  0
   -1.3359   -1.4834   -0.0438 C   0  0  0  0  0  0  0  0  0  0  0  0
   -1.2372    2.8215   -0.0744 N   0  0  0  0  0  0  0  0  0  0  0  0
   -2.3225    3.6857    0.0499 C   0  0  0  0  0  0  0  0  0  0  0  0
   -2.1227    4.8848   -0.0306 O   0  0  0  0  0  0  0  0  0  0  0  0
   -3.7478    3.2171    0.1959 C   0  0  0  0  0  0  0  0  0  0  0  0
   -4.7210    3.6402   -0.7482 C   0  0  0  0  0  0  0  0  0  0  0  0
   -5.9740    3.0135   -0.7923 C   0  0  0  0  0  0  0  0  0  0  0  0
   -6.2751    1.9710    0.0809 C   0  0  0  0  0  0  0  0  0  0  0  0
   -5.3646    1.6028    1.0686 C   0  0  0  0  0  0  0  0  0  0  0  0
   -4.1237    2.2469    1.1717 C   0  0  0  0  0  0  0  0  0  0  0  0
   -3.0248    1.7054    2.4446 Cl  0  0  0  0  0  0  0  0  0  0  0  0
   -4.3877    4.8637   -1.9708 Cl  0  0  0  0  0  0  0  0  0  0  0  0
    1.6352   -2.7178    0.0224 C   0  0  0  0  0  0  0  0  0  0  0  0
    1.0896   -3.4384    1.2679 C   0  0  0  0  0  0  0  0  0  0  0  0
    1.1360   -3.4020   -1.2695 C   0  0  0  0  0  0  0  0  0  0  0  0
    3.0357   -2.8037    0.0481 O   0  0  0  0  0  0  0  0  0  0  0  0
    3.7185    0.6656   -0.9110 H   0  0  0  0  0  0  0  0  0  0  0  0
    3.7560    0.6966    0.8994 H   0  0  0  0  0  0  0  0  0  0  0  0
    4.0344   -0.8145    0.0058 H   0  0  0  0  0  0  0  0  0  0  0  0
   -3.3618    1.0524   -0.6511 H   0  0  0  0  0  0  0  0  0  0  0  0
   -3.4505   -1.2482   -0.3302 H   0  0  0  0  0  0  0  0  0  0  0  0
   -1.4353   -2.5499    0.0233 H   0  0  0  0  0  0  0  0  0  0  0  0
   -0.3048    3.2703   -0.1061 H   0  0  0  0  0  0  0  0  0  0  0  0
   -6.7027    3.2998   -1.5416 H   0  0  0  0  0  0  0  0  0  0  0  0
   -7.2183    1.4456   -0.0080 H   0  0  0  0  0  0  0  0  0  0  0  0
   -5.6079    0.7833    1.7328 H   0  0  0  0  0  0  0  0  0  0  0  0
   -0.0114   -3.4535    1.3039 H   0  0  0  0  0  0  0  0  0  0  0  0
    1.4265   -4.4962    1.2768 H   0  0  0  0  0  0  0  0  0  0  0  0
    1.4585   -2.9340    2.1849 H   0  0  0  0  0  0  0  0  0  0  0  0
    1.5474   -2.8839   -2.1622 H   0  0  0  0  0  0  0  0  0  0  0  0
    1.4674   -4.4621   -1.2978 H   0  0  0  0  0  0  0  0  0  0  0  0
    0.0340   -3.4031   -1.3498 H   0  0  0  0  0  0  0  0  0  0  0  0
    3.3000   -3.7614    0.0321 H   0  0  0  0  0  0  0  0  0  0  0  0
  1  2  1  0  0  0  0
  1 26  1  0  0  0  0
  1 27  1  0  0  0  0
  1 28  1  0  0  0  0
  2  3  2  0  0  0  0
  2  6  1  0  0  0  0
  3  4  1  0  0  0  0
  3 22  1  0  0  0  0
  4  5  2  0  0  0  0
  4 10  1  0  0  0  0
  5  6  1  0  0  0  0
  5  7  1  0  0  0  0
  7  8  2  0  0  0  0
  7 11  1  0  0  0  0
  8  9  1  0  0  0  0
  8 29  1  0  0  0  0
  9 10  2  0  0  0  0
  9 30  1  0  0  0  0
 10 31  1  0  0  0  0
 11 12  1  0  0  0  0
 11 32  1  0  0  0  0
 12 13  2  0  0  0  0
 12 14  1  0  0  0  0
 14 15  2  0  0  0  0
 14 19  1  0  0  0  0
 15 16  1  0  0  0  0
 15 21  1  0  0  0  0
 16 17  2  0  0  0  0
 16 33  1  0  0  0  0
 17 18  1  0  0  0  0
 17 34  1  0  0  0  0
 18 19  2  0  0  0  0
 18 35  1  0  0  0  0
 19 20  1  0  0  0  0
 22 23  1  0  0  0  0
 22 24  1  0  0  0  0
 22 25  1  0  0  0  0
 23 36  1  0  0  0  0
 23 37  1  0  0  0  0
 23 38  1  0  0  0  0
 24 39  1  0  0  0  0
 24 40  1  0  0  0  0
 24 41  1  0  0  0  0
 25 42  1  0  0  0  0
M  END
$$$$

 OpenBabel05152416213D

 51 50  0  0  0  0  0  0  0  0999 V2000
    1.6416    1.3782    0.1975 C   0  0  0  0  0  0  0  0  0  0  0  0
    1.0243    0.7754   -1.6071 C   0  0  0  0  0  0  0  0  0  0  0  0
    1.2470   -0.6913   -2.5480 C   0  0  0  0  0  0  0  0  0  0  0  0
    0.6748   -2.2228   -2.2596 C   0  0  0  0  0  0  0  0  0  0  0  0
   -0.9654   -2.2440   -2.2168 C   0  0  0  0  0  0  0  0  0  0  0  0
   -1.4824   -1.8468   -3.5089 C   0  0  0  0  0  0  0  0  0  0  0  0
   -0.9684   -2.8996   -4.4585 C   0  0  0  0  0  0  0  0  0  0  0  0
   -1.4568   -4.2905   -3.9979 C   0  0  0  0  0  0  0  0  0  0  0  0
   -2.9827   -4.2940   -3.9465 C   0  0  0  0  0  0  0  0  0  0  0  0
   -3.5197   -3.9609   -5.3350 C   0  0  0  0  0  0  0  0  0  0  0  0
   -3.0750   -4.9733   -6.2802 N   0  0  0  0  0  0  0  0  0  0  0  0
   -3.3030   -6.2913   -6.1405 C   0  0  0  0  0  0  0  0  0  0  0  0
   -2.8294   -6.9285   -7.2510 C   0  0  0  0  0  0  0  0  0  0  0  0
   -2.2826   -6.0071   -8.0623 N   0  3  0  0  0  0  0  0  0  0  0  0
   -2.4112   -4.8173   -7.4443 C   0  0  0  0  0  0  0  0  0  0  0  0
   -1.7054   -6.2668   -9.3660 C   0  0  0  0  0  0  0  0  0  0  0  0
    0.3071   -0.6811    0.2596 C   0  0  0  0  0  0  0  0  0  0  0  0
   -0.1663   -1.4136   -0.2907 F   0  0  0  0  0  0  0  0  0  0  0  0
   -0.1468   -0.9991    1.4965 F   0  0  0  0  0  0  0  0  0  0  0  0
   -0.6221    0.6005    0.1210 F   0  0  0  0  0  0  0  0  0  0  0  0
    2.9779   -0.6608   -0.2866 S   0  0  0  0  0  0  0  0  0  0  0  0
    3.7093   -1.9790   -0.3793 O   0  0  0  0  0  0  0  0  0  0  0  0
    3.6596    0.3470   -1.4022 O   0  0  0  0  0  0  0  0  0  0  0  0
    3.8844    0.2305    1.0892 O   0  5  0  0  0  0  0  0  0  0  0  0
    1.8412    0.3699    1.2263 H   0  0  0  0  0  0  0  0  0  0  0  0
    1.2064    1.2379    1.2186 H   0  0  0  0  0  0  0  0  0  0  0  0
    1.3435    1.0980    1.2570 H   0  0  0  0  0  0  0  0  0  0  0  0
   -0.0991    0.7753   -1.8922 H   0  0  0  0  0  0  0  0  0  0  0  0
    1.2789    1.6475   -2.1918 H   0  0  0  0  0  0  0  0  0  0  0  0
    0.8981   -0.4935   -3.6074 H   0  0  0  0  0  0  0  0  0  0  0  0
    2.3150   -0.8503   -2.6632 H   0  0  0  0  0  0  0  0  0  0  0  0
    1.0989   -3.0727   -2.8644 H   0  0  0  0  0  0  0  0  0  0  0  0
    1.0968   -2.7004   -1.3312 H   0  0  0  0  0  0  0  0  0  0  0  0
   -1.3373   -3.1536   -1.6801 H   0  0  0  0  0  0  0  0  0  0  0  0
   -1.6110   -1.5463   -1.6019 H   0  0  0  0  0  0  0  0  0  0  0  0
   -2.5797   -1.7419   -3.4373 H   0  0  0  0  0  0  0  0  0  0  0  0
   -1.1623   -0.8235   -3.7462 H   0  0  0  0  0  0  0  0  0  0  0  0
   -1.2565   -2.6191   -5.4588 H   0  0  0  0  0  0  0  0  0  0  0  0
    0.1196   -2.8942   -4.5621 H   0  0  0  0  0  0  0  0  0  0  0  0
   -1.0628   -5.0491   -4.6790 H   0  0  0  0  0  0  0  0  0  0  0  0
   -1.0581   -4.6037   -3.0088 H   0  0  0  0  0  0  0  0  0  0  0  0
   -3.3366   -5.2774   -3.6038 H   0  0  0  0  0  0  0  0  0  0  0  0
   -3.3956   -3.5847   -3.2018 H   0  0  0  0  0  0  0  0  0  0  0  0
   -4.6158   -3.9557   -5.3007 H   0  0  0  0  0  0  0  0  0  0  0  0
   -3.2373   -2.9455   -5.6767 H   0  0  0  0  0  0  0  0  0  0  0  0
   -3.7966   -6.7520   -5.2980 H   0  0  0  0  0  0  0  0  0  0  0  0
   -2.8981   -7.9842   -7.4567 H   0  0  0  0  0  0  0  0  0  0  0  0
   -2.0631   -3.8719   -7.8519 H   0  0  0  0  0  0  0  0  0  0  0  0
   -2.2670   -5.6939  -10.1332 H   0  0  0  0  0  0  0  0  0  0  0  0
   -0.6414   -5.9676   -9.3674 H   0  0  0  0  0  0  0  0  0  0  0  0
   -1.7876   -7.3500   -9.6004 H   0  0  0  0  0  0  0  0  0  0  0  0
  1  2  1  0  0  0  0
  1 25  1  0  0  0  0
  1 26  1  0  0  0  0
  1 27  1  0  0  0  0
  2  3  1  0  0  0  0
  2 28  1  0  0  0  0
  2 29  1  0  0  0  0
  3  4  1  0  0  0  0
  3 30  1  0  0  0  0
  3 31  1  0  0  0  0
  4  5  1  0  0  0  0
  4 32  1  0  0  0  0
  4 33  1  0  0  0  0
  5  6  1  0  0  0  0
  5 34  1  0  0  0  0
  5 35  1  0  0  0  0
  6  7  1  0  0  0  0
  6 36  1  0  0  0  0
  6 37  1  0  0  0  0
  7  8  1  0  0  0  0
  7 38  1  0  0  0  0
  7 39  1  0  0  0  0
  8  9  1  0  0  0  0
  8 40  1  0  0  0  0
  8 41  1  0  0  0  0
  9 10  1  0  0  0  0
  9 42  1  0  0  0  0
  9 43  1  0  0  0  0
 10 11  1  0  0  0  0
 10 44  1  0  0  0  0
 10 45  1  0  0  0  0
 11 12  1  0  0  0  0
 11 15  1  0  0  0  0
 12 13  2  0  0  0  0
 12 46  1  0  0  0  0
 13 14  1  0  0  0  0
 13 47  1  0  0  0  0
 14 15  2  0  0  0  0
 14 16  1  0  0  0  0
 15 48  1  0  0  0  0
 16 49  1  0  0  0  0
 16 50  1  0  0  0  0
 16 51  1  0  0  0  0
 17 18  1  0  0  0  0
 17 19  1  0  0  0  0
 17 20  1  0  0  0  0
 17 21  1  0  0  0  0
 21 22  2  0  0  0  0
 21 23  2  0  0  0  0
 21 24  1  0  0  0  0
M  CHG  2  14   1  24  -1
M  END
$$$$

 OpenBabel05152416213D

 34 36  0  0  0  0  0  0  0  0999 V2000
    2.3934    0.0975    0.0828 C   0  0  0  0  0  0  0  0  0  0  0  0
    1.7016    1.2920    0.0058 C   0  0  0  0  0  0  0  0  0  0  0  0
    0.3116    1.2822   -0.0369 C   0  0  0  0  0  0  0  0  0  0  0  0
   -0.4072    0.0763   -0.0516 C   0  0  0  0  0  0  0  0  0  0  0  0
    0.2864   -1.1784   -0.0184 C   0  0  0  0  0  0  0  0  0  0  0  0
    1.7025   -1.1069    0.0968 C   0  0  0  0  0  0  0  0  0  0  0  0
   -0.4145   -2.5760   -0.0661 C   0  0  0  0  0  0  0  0  0  0  0  0
   -0.0239   -3.3518   -1.3575 C   0  0  0  0  0  0  0  0  0  0  0  0
    1.3187   -3.7211   -1.6215 C   0  0  0  0  0  0  0  0  0  0  0  0
    1.6697   -4.5044   -2.7030 C   0  0  0  0  0  0  0  0  0  0  0  0
    0.6952   -4.9530   -3.5789 C   0  0  0  0  0  0  0  0  0  0  0  0
   -0.6397   -4.5937   -3.3757 C   0  0  0  0  0  0  0  0  0  0  0  0
   -1.0006   -3.7947   -2.2825 C   0  0  0  0  0  0  0  0  0  0  0  0
    1.1610   -5.9913   -4.9082 Cl  0  0  0  0  0  0  0  0  0  0  0  0
   -0.0181   -3.3566    1.1954 C   0  0  0  0  0  0  0  0  0  0  0  0
   -0.3009   -2.8136    2.4591 C   0  0  0  0  0  0  0  0  0  0  0  0
    0.1013   -3.4488    3.5855 N   0  0  0  0  0  0  0  0  0  0  0  0
    0.7764   -4.6266    3.5261 C   0  0  0  0  0  0  0  0  0  0  0  0
    1.0184   -5.2057    2.3272 N   0  0  0  0  0  0  0  0  0  0  0  0
    0.6321   -4.6151    1.1785 C   0  0  0  0  0  0  0  0  0  0  0  0
   -1.8147   -2.4032   -0.0406 O   0  0  0  0  0  0  0  0  0  0  0  0
   -2.1600    0.2704   -0.0984 Cl  0  0  0  0  0  0  0  0  0  0  0  0
    3.4757    0.0955    0.1399 H   0  0  0  0  0  0  0  0  0  0  0  0
    2.2458    2.2263    0.0002 H   0  0  0  0  0  0  0  0  0  0  0  0
   -0.2139    2.2269   -0.0628 H   0  0  0  0  0  0  0  0  0  0  0  0
    2.3241   -1.9625    0.2207 H   0  0  0  0  0  0  0  0  0  0  0  0
    2.1304   -3.4930   -0.9795 H   0  0  0  0  0  0  0  0  0  0  0  0
    2.7091   -4.7815   -2.8267 H   0  0  0  0  0  0  0  0  0  0  0  0
   -1.4025   -4.9520   -4.0519 H   0  0  0  0  0  0  0  0  0  0  0  0
   -2.0504   -3.5643   -2.1594 H   0  0  0  0  0  0  0  0  0  0  0  0
   -0.8323   -1.8726    2.5401 H   0  0  0  0  0  0  0  0  0  0  0  0
    1.1200   -5.1076    4.4253 H   0  0  0  0  0  0  0  0  0  0  0  0
    0.8534   -5.1466    0.2698 H   0  0  0  0  0  0  0  0  0  0  0  0
   -2.2537   -3.2876    0.0702 H   0  0  0  0  0  0  0  0  0  0  0  0
  1  2  2  0  0  0  0
  1  6  1  0  0  0  0
  1 23  1  0  0  0  0
  2  3  1  0  0  0  0
  2 24  1  0  0  0  0
  3  4  2  0  0  0  0
  3 25  1  0  0  0  0
  4  5  1  0  0  0  0
  4 22  1  0  0  0  0
  5  6  2  0  0  0  0
  5  7  1  0  0  0  0
  6 26  1  0  0  0  0
  7  8  1  0  0  0  0
  7 15  1  0  0  0  0
  7 21  1  0  0  0  0
  8  9  2  0  0  0  0
  8 13  1  0  0  0  0
  9 10  1  0  0  0  0
  9 27  1  0  0  0  0
 10 11  2  0  0  0  0
 10 28  1  0  0  0  0
 11 12  1  0  0  0  0
 11 14  1  0  0  0  0
 12 13  2  0  0  0  0
 12 29  1  0  0  0  0
 13 30  1  0  0  0  0
 15 16  2  0  0  0  0
 15 20  1  0  0  0  0
 16 17  1  0  0  0  0
 16 31  1  0  0  0  0
 17 18  2  0  0  0  0
 18 19  1  0  0  0  0
 18 32  1  0  0  0  0
 19 20  2  0  0  0  0
 20 33  1  0  0  0  0
 21 34  1  0  0  0  0
M  END
$$$$

 OpenBabel05152416213D

 38 37  0  0  0  0  0  0  0  0999 V2000
    0.8038   -0.4713    0.1031 C   0  0  0  0  0  0  0  0  0  0  0  0
    0.4664   -0.0473    1.5318 C   0  0  0  0  0  0  0  0  0  0  0  0
    1.0666    1.3449    1.8920 C   0  0  0  0  0  0  0  0  0  0  0  0
    0.4678    2.5254    1.0694 C   0  0  0  0  0  0  0  0  0  0  0  0
   -1.0571    2.5382    1.1846 C   0  0  0  0  0  0  0  0  0  0  0  0
   -1.4503    2.7411    2.6712 C   0  0  0  0  0  0  0  0  0  0  0  0
   -1.1073    4.1705    3.1458 C   0  0  0  0  0  0  0  0  0  0  0  0
   -1.6389    5.2780    2.1951 C   0  0  0  0  0  0  0  0  0  0  0  0
   -3.1175    5.3020    2.1229 N   0  0  0  0  0  0  0  0  0  0  0  0
   -3.8709    6.4045    2.2321 C   0  0  0  0  0  0  0  0  0  0  0  0
   -5.2056    6.0246    2.1867 C   0  0  0  0  0  0  0  0  0  0  0  0
   -5.2521    4.6971    2.0586 N   0  3  0  0  0  0  0  0  0  0  0  0
   -3.9881    4.2801    1.9479 C   0  0  0  0  0  0  0  0  0  0  0  0
   -6.3885    3.7849    2.0581 C   0  0  0  0  0  0  0  0  0  0  0  0
    3.0454    1.5708   -0.9292 Cl  0  5  0  0  0  0  0  0  0  0  0  0
    0.4409    0.2975   -0.6103 H   0  0  0  0  0  0  0  0  0  0  0  0
    0.3498   -1.4309   -0.2197 H   0  0  0  0  0  0  0  0  0  0  0  0
    1.8987   -0.6231    0.0564 H   0  0  0  0  0  0  0  0  0  0  0  0
   -0.6343   -0.0616    1.6689 H   0  0  0  0  0  0  0  0  0  0  0  0
    0.8595   -0.8043    2.2380 H   0  0  0  0  0  0  0  0  0  0  0  0
    0.8996    1.5173    2.9718 H   0  0  0  0  0  0  0  0  0  0  0  0
    2.1682    1.3511    1.8164 H   0  0  0  0  0  0  0  0  0  0  0  0
    0.9030    3.4868    1.4227 H   0  0  0  0  0  0  0  0  0  0  0  0
    0.7214    2.4874   -0.0037 H   0  0  0  0  0  0  0  0  0  0  0  0
   -1.4977    3.2939    0.5029 H   0  0  0  0  0  0  0  0  0  0  0  0
   -1.4803    1.6116    0.7612 H   0  0  0  0  0  0  0  0  0  0  0  0
   -2.4757    2.4759    2.8849 H   0  0  0  0  0  0  0  0  0  0  0  0
   -1.0301    1.9808    3.3390 H   0  0  0  0  0  0  0  0  0  0  0  0
   -1.4899    4.3103    4.1756 H   0  0  0  0  0  0  0  0  0  0  0  0
   -0.0025    4.2713    3.2120 H   0  0  0  0  0  0  0  0  0  0  0  0
   -1.2700    6.2601    2.5611 H   0  0  0  0  0  0  0  0  0  0  0  0
   -1.2024    5.2063    1.1822 H   0  0  0  0  0  0  0  0  0  0  0  0
   -3.4849    7.4081    2.3346 H   0  0  0  0  0  0  0  0  0  0  0  0
   -6.0668    6.6705    2.2616 H   0  0  0  0  0  0  0  0  0  0  0  0
   -3.8073    3.2552    1.7636 H   0  0  0  0  0  0  0  0  0  0  0  0
   -6.3609    3.1484    1.1512 H   0  0  0  0  0  0  0  0  0  0  0  0
   -6.3071    3.1146    2.9481 H   0  0  0  0  0  0  0  0  0  0  0  0
   -7.3372    4.3482    2.1232 H   0  0  0  0  0  0  0  0  0  0  0  0
  1  2  1  0  0  0  0
  1 16  1  0  0  0  0
  1 17  1  0  0  0  0
  1 18  1  0  0  0  0
  2  3  1  0  0  0  0
  2 19  1  0  0  0  0
  2 20  1  0  0  0  0
  3  4  1  0  0  0  0
  3 21  1  0  0  0  0
  3 22  1  0  0  0  0
  4  5  1  0  0  0  0
  4 23  1  0  0  0  0
  4 24  1  0  0  0  0
  5  6  1  0  0  0  0
  5 25  1  0  0  0  0
  5 26  1  0  0  0  0
  6  7  1  0  0  0  0
  6 27  1  0  0  0  0
  6 28  1  0  0  0  0
  7  8  1  0  0  0  0
  7 29  1  0  0  0  0
  7 30  1  0  0  0  0
  8  9  1  0  0  0  0
  8 31  1  0  0  0  0
  8 32  1  0  0  0  0
  9 10  1  0  0  0  0
  9 13  1  0  0  0  0
 10 11  2  0  0  0  0
 10 33  1  0  0  0  0
 11 12  1  0  0  0  0
 11 34  1  0  0  0  0
 12 13  2  0  0  0  0
 12 14  1  0  0  0  0
 13 35  1  0  0  0  0
 14 36  1  0  0  0  0
 14 37  1  0  0  0  0
 14 38  1  0  0  0  0
M  CHG  2  12   1  15  -1
M  END
$$$$

 OpenBabel05152416213D

 68 70  0  0  1  0  0  0  0  0999 V2000
    2.3062   -0.3411    1.0923 C   0  0  0  0  0  0  0  0  0  0  0  0
    1.8744    0.7892    0.0996 C   0  0  0  0  0  0  0  0  0  0  0  0
    2.5612    0.7632   -1.3004 C   0  0  0  0  0  0  0  0  0  0  0  0
    2.1178   -0.5346   -1.8165 C   0  0  0  0  0  0  0  0  0  0  0  0
    1.9836    1.8392   -2.2513 C   0  0  0  0  0  0  0  0  0  0  0  0
    4.1237    0.8477   -1.2793 C   0  0  0  0  0  0  0  0  0  0  0  0
    4.6601    1.1088   -0.1960 O   0  0  0  0  0  0  0  0  0  0  0  0
    4.9803    0.6393   -2.3382 O   0  0  0  0  0  0  0  0  0  0  0  0
    4.7431    0.3826   -3.7031 C   0  0  1  0  0  0  0  0  0  0  0  0
    5.2948    1.5047   -4.5846 C   0  0  0  0  0  0  0  0  0  0  0  0
    6.8320    1.5789   -4.5859 C   0  0  2  0  0  0  0  0  0  0  0  0
    7.5013    0.2217   -4.5062 C   0  0  0  0  0  0  0  0  0  0  0  0
    6.8455   -0.9337   -4.3060 C   0  0  0  0  0  0  0  0  0  0  0  0
    5.3315   -0.9793   -4.2127 C   0  0  1  0  0  0  0  0  0  0  0  0
    4.9137   -2.2687   -3.4517 C   0  0  2  0  0  0  0  0  0  0  0  0
    5.5865   -3.5223   -3.9429 C   0  0  2  0  0  0  0  0  0  0  0  0
    7.0472   -3.3810   -4.0606 C   0  0  0  0  0  0  0  0  0  0  0  0
    7.6331   -2.1953   -4.2185 C   0  0  0  0  0  0  0  0  0  0  0  0
    4.9745   -4.0485   -5.2563 C   0  0  0  0  0  0  0  0  0  0  0  0
    3.4057   -2.5540   -3.5193 C   0  0  0  0  0  0  0  0  0  0  0  0
    2.6063   -3.7861   -3.0703 C   0  0  0  0  0  0  0  0  0  0  0  0
    3.2346   -4.5241   -1.8840 C   0  0  2  0  0  0  0  0  0  0  0  0
    2.2287   -5.5010   -1.3232 C   0  0  0  0  0  0  0  0  0  0  0  0
    2.7896   -6.0613   -0.0262 C   0  0  2  0  0  0  0  0  0  0  0  0
    2.8930   -4.9202    1.0016 C   0  0  0  0  0  0  0  0  0  0  0  0
    3.6355   -3.7559    0.4210 C   0  0  0  0  0  0  0  0  0  0  0  0
    4.0874   -2.8951    1.1443 O   0  0  0  0  0  0  0  0  0  0  0  0
    3.7739   -3.6570   -0.9305 O   0  0  0  0  0  0  0  0  0  0  0  0
    4.0352   -6.7014   -0.2380 O   0  0  0  0  0  0  0  0  0  0  0  0
    7.3425    2.4434   -3.4357 C   0  0  0  0  0  0  0  0  0  0  0  0
    2.0211   -1.3716    0.7771 H   0  0  0  0  0  0  0  0  0  0  0  0
    1.7847   -0.2244    2.0553 H   0  0  0  0  0  0  0  0  0  0  0  0
    3.4003   -0.3387    1.2641 H   0  0  0  0  0  0  0  0  0  0  0  0
    0.7753    0.6531   -0.0575 H   0  0  0  0  0  0  0  0  0  0  0  0
    2.0465    1.7723    0.5586 H   0  0  0  0  0  0  0  0  0  0  0  0
    1.0511   -0.7804   -1.9116 H   0  0  0  0  0  0  0  0  0  0  0  0
    2.4019   -0.5047   -2.8361 H   0  0  0  0  0  0  0  0  0  0  0  0
    2.5960   -1.2817   -1.1551 H   0  0  0  0  0  0  0  0  0  0  0  0
    2.1511    2.8476   -1.8484 H   0  0  0  0  0  0  0  0  0  0  0  0
    2.4370    1.8339   -3.2594 H   0  0  0  0  0  0  0  0  0  0  0  0
    0.9063    1.6381   -2.4379 H   0  0  0  0  0  0  0  0  0  0  0  0
    3.7025    0.3928   -3.9568 H   0  0  0  0  0  0  0  0  0  0  0  0
    4.8417    2.4931   -4.3388 H   0  0  0  0  0  0  0  0  0  0  0  0
    4.9674    1.2611   -5.6203 H   0  0  0  0  0  0  0  0  0  0  0  0
    7.1300    2.0770   -5.5342 H   0  0  0  0  0  0  0  0  0  0  0  0
    8.5830    0.1930   -4.5797 H   0  0  0  0  0  0  0  0  0  0  0  0
    4.9636   -1.0932   -5.2543 H   0  0  0  0  0  0  0  0  0  0  0  0
    5.3036   -2.0855   -2.3968 H   0  0  0  0  0  0  0  0  0  0  0  0
    5.4971   -4.2067   -3.1056 H   0  0  0  0  0  0  0  0  0  0  0  0
    7.6220   -4.2969   -4.0250 H   0  0  0  0  0  0  0  0  0  0  0  0
    8.7084   -2.1828   -4.3069 H   0  0  0  0  0  0  0  0  0  0  0  0
    5.3330   -5.0705   -5.4399 H   0  0  0  0  0  0  0  0  0  0  0  0
    3.8754   -4.1372   -5.2915 H   0  0  0  0  0  0  0  0  0  0  0  0
    5.1854   -3.3230   -6.0600 H   0  0  0  0  0  0  0  0  0  0  0  0
    3.3464   -2.1816   -2.6158 H   0  0  0  0  0  0  0  0  0  0  0  0
    2.8641   -1.9813   -4.3089 H   0  0  0  0  0  0  0  0  0  0  0  0
    1.5975   -3.3949   -2.7787 H   0  0  0  0  0  0  0  0  0  0  0  0
    2.3979   -4.5083   -3.8780 H   0  0  0  0  0  0  0  0  0  0  0  0
    4.0384   -5.1620   -2.2552 H   0  0  0  0  0  0  0  0  0  0  0  0
    2.0553   -6.2860   -2.0899 H   0  0  0  0  0  0  0  0  0  0  0  0
    1.2688   -4.9795   -1.1128 H   0  0  0  0  0  0  0  0  0  0  0  0
    2.0847   -6.8193    0.3558 H   0  0  0  0  0  0  0  0  0  0  0  0
    1.8826   -4.5387    1.2695 H   0  0  0  0  0  0  0  0  0  0  0  0
    3.3997   -5.2994    1.9113 H   0  0  0  0  0  0  0  0  0  0  0  0
    4.7497   -6.0213   -0.3723 H   0  0  0  0  0  0  0  0  0  0  0  0
    8.4484    2.5224   -3.4931 H   0  0  0  0  0  0  0  0  0  0  0  0
    6.9143    3.4647   -3.5206 H   0  0  0  0  0  0  0  0  0  0  0  0
    7.0654    2.0157   -2.4515 H   0  0  0  0  0  0  0  0  0  0  0  0
  1  2  1  0  0  0  0
  1 31  1  0  0  0  0
  1 32  1  0  0  0  0
  1 33  1  0  0  0  0
  2  3  1  0  0  0  0
  2 34  1  0  0  0  0
  2 35  1  0  0  0  0
  3  4  1  0  0  0  0
  3  5  1  0  0  0  0
  3  6  1  0  0  0  0
  4 36  1  0  0  0  0
  4 37  1  0  0  0  0
  4 38  1  0  0  0  0
  5 39  1  0  0  0  0
  5 40  1  0  0  0  0
  5 41  1  0  0  0  0
  6  7  2  0  0  0  0
  6  8  1  0  0  0  0
  9 10  1  0  0  0  0
  9 14  1  0  0  0  0
  9 42  1  6  0  0  0
  9  8  1  0  0  0  0
 10 11  1  0  0  0  0
 10 43  1  0  0  0  0
 10 44  1  0  0  0  0
 11 12  1  0  0  0  0
 11 30  1  0  0  0  0
 11 45  1  6  0  0  0
 12 13  2  0  0  0  0
 12 46  1  0  0  0  0
 13 14  1  0  0  0  0
 13 18  1  0  0  0  0
 14 15  1  0  0  0  0
 14 47  1  6  0  0  0
 15 16  1  0  0  0  0
 15 48  1  1  0  0  0
 15 20  1  0  0  0  0
 16 17  1  0  0  0  0
 16 19  1  0  0  0  0
 16 49  1  1  0  0  0
 17 18  2  0  0  0  0
 17 50  1  0  0  0  0
 18 51  1  0  0  0  0
 19 52  1  0  0  0  0
 19 53  1  0  0  0  0
 19 54  1  0  0  0  0
 20 21  1  0  0  0  0
 20 55  1  0  0  0  0
 20 56  1  0  0  0  0
 21 22  1  0  0  0  0
 21 57  1  0  0  0  0
 21 58  1  0  0  0  0
 22 23  1  0  0  0  0
 22 28  1  0  0  0  0
 22 59  1  6  0  0  0
 23 24  1  0  0  0  0
 23 60  1  0  0  0  0
 23 61  1  0  0  0  0
 24 25  1  0  0  0  0
 24 29  1  0  0  0  0
 24 62  1  1  0  0  0
 25 26  1  0  0  0  0
 25 63  1  0  0  0  0
 25 64  1  0  0  0  0
 26 27  2  0  0  0  0
 26 28  1  0  0  0  0
 29 65  1  0  0  0  0
 30 66  1  0  0  0  0
 30 67  1  0  0  0  0
 30 68  1  0  0  0  0
M  END
$$$$

 OpenBabel05152416213D

 44 43  0  0  0  0  0  0  0  0999 V2000
    0.4038    0.1491   -0.4695 C   0  0  0  0  0  0  0  0  0  0  0  0
    0.2318   -1.3906   -0.3379 C   0  0  0  0  0  0  0  0  0  0  0  0
    0.7896   -2.1538    0.9275 C   0  0  0  0  0  0  0  0  0  0  0  0
    0.2867   -1.5950    2.2823 C   0  0  0  0  0  0  0  0  0  0  0  0
   -1.2284   -1.6267    2.3220 C   0  0  0  0  0  0  0  0  0  0  0  0
   -1.7391   -3.0772    2.2150 C   0  0  0  0  0  0  0  0  0  0  0  0
   -1.2049   -3.9582    3.3740 C   0  0  0  0  0  0  0  0  0  0  0  0
   -1.6397   -3.3636    4.7222 C   0  0  0  0  0  0  0  0  0  0  0  0
   -3.0908   -3.2914    4.7248 N   0  0  0  0  0  0  0  0  0  0  0  0
   -3.8733   -2.1823    4.6657 C   0  0  0  0  0  0  0  0  0  0  0  0
   -5.1847   -2.5969    4.6332 C   0  0  0  0  0  0  0  0  0  0  0  0
   -5.2028   -3.9504    4.6789 N   0  3  0  0  0  0  0  0  0  0  0  0
   -3.9201   -4.3380    4.7218 C   0  0  0  0  0  0  0  0  0  0  0  0
   -6.3635   -4.8120    4.6824 C   0  0  0  0  0  0  0  0  0  0  0  0
    2.8410   -0.5648    1.9193 F   0  0  0  0  0  0  0  0  0  0  0  0
    3.3154    0.1656    0.4531 P   0  5  0  0  0  0  0  0  0  0  0  0
    4.3908    0.6581    1.6775 F   0  0  0  0  0  0  0  0  0  0  0  0
    4.9320   -0.2363    0.1013 F   0  0  0  0  0  0  0  0  0  0  0  0
    3.4137   -1.4302   -0.1745 F   0  0  0  0  0  0  0  0  0  0  0  0
    3.6829    0.9306   -1.0403 F   0  0  0  0  0  0  0  0  0  0  0  0
    2.8706    1.7506    0.9442 F   0  0  0  0  0  0  0  0  0  0  0  0
    0.2767    0.6964    0.4937 H   0  0  0  0  0  0  0  0  0  0  0  0
   -0.2448    0.6496   -1.2154 H   0  0  0  0  0  0  0  0  0  0  0  0
    1.3326    0.3573   -1.0003 H   0  0  0  0  0  0  0  0  0  0  0  0
   -0.8535   -1.5734   -0.3748 H   0  0  0  0  0  0  0  0  0  0  0  0
    0.6572   -1.8616   -1.2463 H   0  0  0  0  0  0  0  0  0  0  0  0
    0.5264   -3.2225    0.8162 H   0  0  0  0  0  0  0  0  0  0  0  0
    1.8610   -2.3062    1.0122 H   0  0  0  0  0  0  0  0  0  0  0  0
    0.7401   -2.1712    3.1227 H   0  0  0  0  0  0  0  0  0  0  0  0
    0.5948   -0.5553    2.4960 H   0  0  0  0  0  0  0  0  0  0  0  0
   -1.5803   -1.1272    3.2405 H   0  0  0  0  0  0  0  0  0  0  0  0
   -1.6349   -0.9902    1.5171 H   0  0  0  0  0  0  0  0  0  0  0  0
   -2.8441   -3.0536    2.2057 H   0  0  0  0  0  0  0  0  0  0  0  0
   -1.4701   -3.5373    1.2450 H   0  0  0  0  0  0  0  0  0  0  0  0
   -1.6006   -4.9853    3.2550 H   0  0  0  0  0  0  0  0  0  0  0  0
   -0.1013   -4.0725    3.3493 H   0  0  0  0  0  0  0  0  0  0  0  0
   -1.2813   -3.9794    5.5700 H   0  0  0  0  0  0  0  0  0  0  0  0
   -1.1935   -2.3603    4.8777 H   0  0  0  0  0  0  0  0  0  0  0  0
   -3.5191   -1.1618    4.6206 H   0  0  0  0  0  0  0  0  0  0  0  0
   -6.0639   -1.9696    4.5747 H   0  0  0  0  0  0  0  0  0  0  0  0
   -3.5901   -5.3753    4.7478 H   0  0  0  0  0  0  0  0  0  0  0  0
   -6.3312   -5.4892    3.8023 H   0  0  0  0  0  0  0  0  0  0  0  0
   -6.3602   -5.4174    5.6143 H   0  0  0  0  0  0  0  0  0  0  0  0
   -7.2926   -4.2069    4.6472 H   0  0  0  0  0  0  0  0  0  0  0  0
  1  2  1  0  0  0  0
  1 22  1  0  0  0  0
  1 23  1  0  0  0  0
  1 24  1  0  0  0  0
  2  3  1  0  0  0  0
  2 25  1  0  0  0  0
  2 26  1  0  0  0  0
  3  4  1  0  0  0  0
  3 27  1  0  0  0  0
  3 28  1  0  0  0  0
  4  5  1  0  0  0  0
  4 29  1  0  0  0  0
  4 30  1  0  0  0  0
  5  6  1  0  0  0  0
  5 31  1  0  0  0  0
  5 32  1  0  0  0  0
  6  7  1  0  0  0  0
  6 33  1  0  0  0  0
  6 34  1  0  0  0  0
  7  8  1  0  0  0  0
  7 35  1  0  0  0  0
  7 36  1  0  0  0  0
  8  9  1  0  0  0  0
  8 37  1  0  0  0  0
  8 38  1  0  0  0  0
  9 10  1  0  0  0  0
  9 13  1  0  0  0  0
 10 11  2  0  0  0  0
 10 39  1  0  0  0  0
 11 12  1  0  0  0  0
 11 40  1  0  0  0  0
 12 13  2  0  0  0  0
 12 14  1  0  0  0  0
 13 41  1  0  0  0  0
 14 42  1  0  0  0  0
 14 43  1  0  0  0  0
 14 44  1  0  0  0  0
 15 16  1  0  0  0  0
 16 17  1  0  0  0  0
 16 18  1  0  0  0  0
 16 19  1  0  0  0  0
 16 20  1  0  0  0  0
 16 21  1  0  0  0  0
M  CHG  2  12   1  16  -1
M  END
$$$$

 OpenBabel05152416213D

 56 58  0  0  1  0  0  0  0  0999 V2000
    4.7749   -2.2378   -3.9740 C   0  0  0  0  0  0  0  0  0  0  0  0
    3.8909   -1.5939   -2.9158 C   0  0  0  0  0  0  0  0  0  0  0  0
    3.0776   -2.5702   -2.0592 C   0  0  0  0  0  0  0  0  0  0  0  0
    4.5602   -0.6074   -2.0294 N   0  0  0  0  0  0  0  0  0  0  0  0
    5.7440   -0.7399   -1.4091 C   0  0  0  0  0  0  0  0  0  0  0  0
    6.6159   -1.8359   -1.3857 C   0  0  0  0  0  0  0  0  0  0  0  0
    7.8181   -1.7315   -0.6956 C   0  0  0  0  0  0  0  0  0  0  0  0
    8.1399   -0.5533   -0.0016 C   0  0  0  0  0  0  0  0  0  0  0  0
    7.2492    0.5324    0.0036 C   0  0  0  0  0  0  0  0  0  0  0  0
    6.0639    0.4121   -0.7189 C   0  0  0  0  0  0  0  0  0  0  0  0
    5.0131    1.2886   -0.8697 C   0  0  0  0  0  0  0  0  0  0  0  0
    4.0832    0.6252   -1.6766 C   0  0  0  0  0  0  0  0  0  0  0  0
    2.8283    1.2718   -2.0902 C   0  0  0  0  0  0  0  0  0  0  0  0
    1.8055    0.6882   -2.7345 C   0  0  0  0  0  0  0  0  0  0  0  0
    0.5634    1.3356   -3.1713 C   0  0  2  0  0  0  0  0  0  0  0  0
    0.5886    2.8845   -3.2621 C   0  0  0  0  0  0  0  0  0  0  0  0
   -0.4717    3.6015   -2.4254 C   0  0  2  0  0  0  0  0  0  0  0  0
   -0.0190    3.7485   -0.9331 C   0  0  0  0  0  0  0  0  0  0  0  0
   -0.8976    3.0801    0.0752 C   0  0  0  0  0  0  0  0  0  0  0  0
   -0.4456    2.2171    0.8133 O   0  0  0  0  0  0  0  0  0  0  0  0
   -2.1950    3.4363    0.1574 O   0  0  0  0  0  0  0  0  0  0  0  0
   -1.7744    3.0963   -2.6479 O   0  0  0  0  0  0  0  0  0  0  0  0
   -0.4643    0.7773   -2.4014 O   0  0  0  0  0  0  0  0  0  0  0  0
    4.9101    2.6335   -0.2432 C   0  0  0  0  0  0  0  0  0  0  0  0
    5.9454    3.5639   -0.4181 C   0  0  0  0  0  0  0  0  0  0  0  0
    5.9065    4.7998    0.2332 C   0  0  0  0  0  0  0  0  0  0  0  0
    4.8367    5.1162    1.0741 C   0  0  0  0  0  0  0  0  0  0  0  0
    3.7833    4.2107    1.2337 C   0  0  0  0  0  0  0  0  0  0  0  0
    3.8121    2.9760    0.5714 C   0  0  0  0  0  0  0  0  0  0  0  0
    4.8261    6.2979    1.7398 F   0  0  0  0  0  0  0  0  0  0  0  0
    5.4959   -2.9621   -3.6076 H   0  0  0  0  0  0  0  0  0  0  0  0
    5.2905   -1.4351   -4.5478 H   0  0  0  0  0  0  0  0  0  0  0  0
    4.1232   -2.8142   -4.6677 H   0  0  0  0  0  0  0  0  0  0  0  0
    3.3092   -1.0545   -3.6553 H   0  0  0  0  0  0  0  0  0  0  0  0
    3.7580   -3.1496   -1.4023 H   0  0  0  0  0  0  0  0  0  0  0  0
    2.3710   -2.0122   -1.4007 H   0  0  0  0  0  0  0  0  0  0  0  0
    2.4847   -3.2586   -2.6938 H   0  0  0  0  0  0  0  0  0  0  0  0
    6.4099   -2.7709   -1.8560 H   0  0  0  0  0  0  0  0  0  0  0  0
    8.4944   -2.5742   -0.6953 H   0  0  0  0  0  0  0  0  0  0  0  0
    9.0715   -0.4982    0.5377 H   0  0  0  0  0  0  0  0  0  0  0  0
    7.4836    1.4300    0.5588 H   0  0  0  0  0  0  0  0  0  0  0  0
    2.7613    2.3040   -1.8087 H   0  0  0  0  0  0  0  0  0  0  0  0
    1.7094   -0.3428   -2.9496 H   0  0  0  0  0  0  0  0  0  0  0  0
    0.3952    0.9930   -4.2202 H   0  0  0  0  0  0  0  0  0  0  0  0
    1.5590    3.3641   -3.0335 H   0  0  0  0  0  0  0  0  0  0  0  0
    0.5439    3.1451   -4.3420 H   0  0  0  0  0  0  0  0  0  0  0  0
   -0.4807    4.6331   -2.8286 H   0  0  0  0  0  0  0  0  0  0  0  0
    1.0244    3.3878   -0.7962 H   0  0  0  0  0  0  0  0  0  0  0  0
    0.0241    4.8305   -0.6898 H   0  0  0  0  0  0  0  0  0  0  0  0
   -2.8078    2.9755    0.7434 H   0  0  0  0  0  0  0  0  0  0  0  0
   -1.9741    2.3575   -2.0190 H   0  0  0  0  0  0  0  0  0  0  0  0
   -0.2091    0.8826   -1.4448 H   0  0  0  0  0  0  0  0  0  0  0  0
    6.7793    3.3319   -1.0678 H   0  0  0  0  0  0  0  0  0  0  0  0
    6.7153    5.5055    0.0959 H   0  0  0  0  0  0  0  0  0  0  0  0
    2.9541    4.4593    1.8853 H   0  0  0  0  0  0  0  0  0  0  0  0
    3.0019    2.2752    0.7327 H   0  0  0  0  0  0  0  0  0  0  0  0
  1  2  1  0  0  0  0
  1 31  1  0  0  0  0
  1 32  1  0  0  0  0
  1 33  1  0  0  0  0
  2  3  1  0  0  0  0
  2  4  1  0  0  0  0
  2 34  1  0  0  0  0
  3 35  1  0  0  0  0
  3 36  1  0  0  0  0
  3 37  1  0  0  0  0
  4  5  1  0  0  0  0
  4 12  1  0  0  0  0
  5  6  2  0  0  0  0
  5 10  1  0  0  0  0
  6  7  1  0  0  0  0
  6 38  1  0  0  0  0
  7  8  2  0  0  0  0
  7 39  1  0  0  0  0
  8  9  1  0  0  0  0
  8 40  1  0  0  0  0
  9 10  2  0  0  0  0
  9 41  1  0  0  0  0
 10 11  1  0  0  0  0
 11 12  2  0  0  0  0
 11 24  1  0  0  0  0
 12 13  1  0  0  0  0
 13 14  2  0  0  0  0
 13 42  1  0  0  0  0
 14 43  1  0  0  0  0
 15 23  1  0  0  0  0
 15 44  1  6  0  0  0
 15 16  1  0  0  0  0
 15 14  1  0  0  0  0
 16 45  1  0  0  0  0
 16 46  1  0  0  0  0
 17 22  1  0  0  0  0
 17 47  1  6  0  0  0
 17 18  1  0  0  0  0
 17 16  1  0  0  0  0
 18 19  1  0  0  0  0
 18 48  1  0  0  0  0
 18 49  1  0  0  0  0
 19 20  2  0  0  0  0
 19 21  1  0  0  0  0
 21 50  1  0  0  0  0
 22 51  1  0  0  0  0
 23 52  1  0  0  0  0
 24 25  2  0  0  0  0
 24 29  1  0  0  0  0
 25 26  1  0  0  0  0
 25 53  1  0  0  0  0
 26 27  2  0  0  0  0
 26 54  1  0  0  0  0
 27 28  1  0  0  0  0
 27 30  1  0  0  0  0
 28 29  2  0  0  0  0
 28 55  1  0  0  0  0
 29 56  1  0  0  0  0
M  END
$$$$

 OpenBabel05152416213D

 49 51  0  0  0  0  0  0  0  0999 V2000
    1.0801   -0.1228   -0.2494 C   0  0  0  0  0  0  0  0  0  0  0  0
    0.4444   -1.4075    0.3555 C   0  0  0  0  0  0  0  0  0  0  0  0
   -0.3533   -2.1443   -0.8012 C   0  0  0  0  0  0  0  0  0  0  0  0
    0.6919   -2.9196   -0.0394 C   0  0  0  0  0  0  0  0  0  0  0  0
    1.8906   -3.4033   -0.8858 C   0  0  0  0  0  0  0  0  0  0  0  0
    0.1068   -4.0754    0.7915 C   0  0  0  0  0  0  0  0  0  0  0  0
   -1.8882   -2.1422   -0.8220 C   0  0  0  0  0  0  0  0  0  0  0  0
   -2.3768   -1.7264   -1.8566 O   0  0  0  0  0  0  0  0  0  0  0  0
   -2.7286   -2.6622    0.1386 O   0  0  0  0  0  0  0  0  0  0  0  0
   -4.1256   -2.8052   -0.0552 C   0  0  0  0  0  0  0  0  0  0  0  0
   -4.7348   -1.4405   -0.3327 C   0  0  0  0  0  0  0  0  0  0  0  0
   -5.2402   -0.3084   -0.5629 N   0  0  0  0  0  0  0  0  0  0  0  0
   -4.3873   -3.7629   -1.1924 C   0  0  0  0  0  0  0  0  0  0  0  0
   -5.1570   -3.4390   -2.3435 C   0  0  0  0  0  0  0  0  0  0  0  0
   -5.3460   -4.3957   -3.3465 C   0  0  0  0  0  0  0  0  0  0  0  0
   -4.7090   -5.6482   -3.2180 C   0  0  0  0  0  0  0  0  0  0  0  0
   -3.9647   -5.9634   -2.0969 C   0  0  0  0  0  0  0  0  0  0  0  0
   -3.8149   -5.0347   -1.0831 C   0  0  0  0  0  0  0  0  0  0  0  0
   -6.1251   -4.1169   -4.4328 O   0  0  0  0  0  0  0  0  0  0  0  0
   -6.6328   -5.0997   -5.2215 C   0  0  0  0  0  0  0  0  0  0  0  0
   -6.5260   -4.9939   -6.6104 C   0  0  0  0  0  0  0  0  0  0  0  0
   -6.9233   -6.0599   -7.4243 C   0  0  0  0  0  0  0  0  0  0  0  0
   -7.4372   -7.2308   -6.8543 C   0  0  0  0  0  0  0  0  0  0  0  0
   -7.5864   -7.3276   -5.4703 C   0  0  0  0  0  0  0  0  0  0  0  0
   -7.2020   -6.2647   -4.6575 C   0  0  0  0  0  0  0  0  0  0  0  0
    0.4814   -1.2740    1.9017 C   0  0  0  0  0  0  0  0  0  0  0  0
    0.7113    0.7552    0.3353 H   0  0  0  0  0  0  0  0  0  0  0  0
    0.7851    0.1231   -1.2894 H   0  0  0  0  0  0  0  0  0  0  0  0
    2.1827   -0.1304   -0.1453 H   0  0  0  0  0  0  0  0  0  0  0  0
    0.0417   -1.8170   -1.7904 H   0  0  0  0  0  0  0  0  0  0  0  0
    2.7056   -3.7238   -0.2019 H   0  0  0  0  0  0  0  0  0  0  0  0
    1.5863   -4.3202   -1.4469 H   0  0  0  0  0  0  0  0  0  0  0  0
    2.2918   -2.6699   -1.6115 H   0  0  0  0  0  0  0  0  0  0  0  0
   -0.6347   -3.7780    1.5507 H   0  0  0  0  0  0  0  0  0  0  0  0
   -0.3743   -4.8131    0.1175 H   0  0  0  0  0  0  0  0  0  0  0  0
    0.9503   -4.5944    1.3013 H   0  0  0  0  0  0  0  0  0  0  0  0
   -4.5767   -3.2214    0.8702 H   0  0  0  0  0  0  0  0  0  0  0  0
   -5.6201   -2.4656   -2.4654 H   0  0  0  0  0  0  0  0  0  0  0  0
   -4.7872   -6.4020   -3.9846 H   0  0  0  0  0  0  0  0  0  0  0  0
   -3.5065   -6.9372   -2.0199 H   0  0  0  0  0  0  0  0  0  0  0  0
   -3.2308   -5.3000   -0.2126 H   0  0  0  0  0  0  0  0  0  0  0  0
   -6.0940   -4.1056   -7.0528 H   0  0  0  0  0  0  0  0  0  0  0  0
   -6.8091   -5.9892   -8.4966 H   0  0  0  0  0  0  0  0  0  0  0  0
   -7.7159   -8.0651   -7.4827 H   0  0  0  0  0  0  0  0  0  0  0  0
   -7.9784   -8.2328   -5.0233 H   0  0  0  0  0  0  0  0  0  0  0  0
   -7.3039   -6.3625   -3.5819 H   0  0  0  0  0  0  0  0  0  0  0  0
    1.5334   -1.0336    2.1922 H   0  0  0  0  0  0  0  0  0  0  0  0
   -0.1345   -0.4077    2.2180 H   0  0  0  0  0  0  0  0  0  0  0  0
    0.1979   -2.1355    2.5215 H   0  0  0  0  0  0  0  0  0  0  0  0
  1  2  1  0  0  0  0
  1 27  1  0  0  0  0
  1 28  1  0  0  0  0
  1 29  1  0  0  0  0
  2  3  1  0  0  0  0
  2  4  1  0  0  0  0
  2 26  1  0  0  0  0
  3  4  1  0  0  0  0
  3  7  1  0  0  0  0
  3 30  1  0  0  0  0
  4  5  1  0  0  0  0
  4  6  1  0  0  0  0
  5 31  1  0  0  0  0
  5 32  1  0  0  0  0
  5 33  1  0  0  0  0
  6 34  1  0  0  0  0
  6 35  1  0  0  0  0
  6 36  1  0  0  0  0
  7  8  2  0  0  0  0
  7  9  1  0  0  0  0
  9 10  1  0  0  0  0
 10 11  1  0  0  0  0
 10 13  1  0  0  0  0
 10 37  1  0  0  0  0
 11 12  3  0  0  0  0
 13 14  2  0  0  0  0
 13 18  1  0  0  0  0
 14 15  1  0  0  0  0
 14 38  1  0  0  0  0
 15 16  2  0  0  0  0
 15 19  1  0  0  0  0
 16 17  1  0  0  0  0
 16 39  1  0  0  0  0
 17 18  2  0  0  0  0
 17 40  1  0  0  0  0
 18 41  1  0  0  0  0
 19 20  1  0  0  0  0
 20 21  2  0  0  0  0
 20 25  1  0  0  0  0
 21 22  1  0  0  0  0
 21 42  1  0  0  0  0
 22 23  2  0  0  0  0
 22 43  1  0  0  0  0
 23 24  1  0  0  0  0
 23 44  1  0  0  0  0
 24 25  2  0  0  0  0
 24 45  1  0  0  0  0
 25 46  1  0  0  0  0
 26 47  1  0  0  0  0
 26 48  1  0  0  0  0
 26 49  1  0  0  0  0
M  END
$$$$

 OpenBabel05152416213D

 48 50  0  0  0  0  0  0  0  0999 V2000
    0.9512   -0.0025    0.0809 C   0  0  0  0  0  0  0  0  0  0  0  0
    0.4521   -1.2517   -0.2047 O   0  0  0  0  0  0  0  0  0  0  0  0
    0.7850   -1.9513   -1.3059 C   0  0  0  0  0  0  0  0  0  0  0  0
   -0.2171   -2.6609   -1.9345 C   0  0  0  0  0  0  0  0  0  0  0  0
    0.0304   -3.3377   -3.1073 C   0  0  0  0  0  0  0  0  0  0  0  0
    1.2959   -3.3372   -3.7384 C   0  0  0  0  0  0  0  0  0  0  0  0
    2.3330   -2.6500   -3.0481 C   0  0  0  0  0  0  0  0  0  0  0  0
    2.0807   -1.9707   -1.8510 C   0  0  0  0  0  0  0  0  0  0  0  0
    1.5444   -3.9605   -5.1104 C   0  0  0  0  0  0  0  0  0  0  0  0
    0.5558   -4.5087   -5.9246 C   0  0  0  0  0  0  0  0  0  0  0  0
    0.8457   -5.1269   -7.2376 C   0  0  0  0  0  0  0  0  0  0  0  0
   -0.0304   -4.8925   -8.3114 C   0  0  0  0  0  0  0  0  0  0  0  0
    0.2213   -5.4399   -9.5593 C   0  0  0  0  0  0  0  0  0  0  0  0
    1.3580   -6.2294   -9.7652 C   0  0  0  0  0  0  0  0  0  0  0  0
    2.2212   -6.4891   -8.6816 C   0  0  0  0  0  0  0  0  0  0  0  0
    1.9624   -5.9543   -7.4360 C   0  0  0  0  0  0  0  0  0  0  0  0
    1.6052   -6.7043  -11.0037 O   0  0  0  0  0  0  0  0  0  0  0  0
    2.7539   -7.3857  -11.3452 C   0  0  0  0  0  0  0  0  0  0  0  0
   -1.1849   -4.6412   -5.6037 Cl  0  0  0  0  0  0  0  0  0  0  0  0
    2.9441   -3.8862   -5.6782 C   0  0  0  0  0  0  0  0  0  0  0  0
    3.1920   -3.3096   -6.9487 C   0  0  0  0  0  0  0  0  0  0  0  0
    4.4721   -3.3418   -7.5155 C   0  0  0  0  0  0  0  0  0  0  0  0
    5.5342   -3.9397   -6.8250 C   0  0  0  0  0  0  0  0  0  0  0  0
    5.2901   -4.5039   -5.5576 C   0  0  0  0  0  0  0  0  0  0  0  0
    4.0169   -4.4735   -4.9927 C   0  0  0  0  0  0  0  0  0  0  0  0
    6.7691   -3.9498   -7.3906 O   0  0  0  0  0  0  0  0  0  0  0  0
    7.9056   -4.4289   -6.7669 C   0  0  0  0  0  0  0  0  0  0  0  0
    0.5312    0.3354    1.0472 H   0  0  0  0  0  0  0  0  0  0  0  0
    0.6269    0.7052   -0.7151 H   0  0  0  0  0  0  0  0  0  0  0  0
    2.0552   -0.0174    0.1458 H   0  0  0  0  0  0  0  0  0  0  0  0
   -1.2240   -2.6587   -1.5339 H   0  0  0  0  0  0  0  0  0  0  0  0
   -0.8337   -3.8117   -3.4634 H   0  0  0  0  0  0  0  0  0  0  0  0
    3.3421   -2.5923   -3.4284 H   0  0  0  0  0  0  0  0  0  0  0  0
    2.8934   -1.4485   -1.3647 H   0  0  0  0  0  0  0  0  0  0  0  0
   -0.8993   -4.2560   -8.1888 H   0  0  0  0  0  0  0  0  0  0  0  0
   -0.4633   -5.2296  -10.3707 H   0  0  0  0  0  0  0  0  0  0  0  0
    3.1045   -7.1018   -8.7895 H   0  0  0  0  0  0  0  0  0  0  0  0
    2.6424   -6.1928   -6.6295 H   0  0  0  0  0  0  0  0  0  0  0  0
    3.6399   -6.7523  -11.1162 H   0  0  0  0  0  0  0  0  0  0  0  0
    2.8146   -8.3367  -10.7739 H   0  0  0  0  0  0  0  0  0  0  0  0
    2.7427   -7.6048  -12.4278 H   0  0  0  0  0  0  0  0  0  0  0  0
    2.3869   -2.8475   -7.5092 H   0  0  0  0  0  0  0  0  0  0  0  0
    4.6362   -2.9080   -8.4969 H   0  0  0  0  0  0  0  0  0  0  0  0
    6.0802   -4.9866   -5.0012 H   0  0  0  0  0  0  0  0  0  0  0  0
    3.8601   -4.9437   -4.0326 H   0  0  0  0  0  0  0  0  0  0  0  0
    8.0614   -3.8801   -5.8128 H   0  0  0  0  0  0  0  0  0  0  0  0
    7.8054   -5.5169   -6.5613 H   0  0  0  0  0  0  0  0  0  0  0  0
    8.7902   -4.2646   -7.4132 H   0  0  0  0  0  0  0  0  0  0  0  0
  1  2  1  0  0  0  0
  1 28  1  0  0  0  0
  1 29  1  0  0  0  0
  1 30  1  0  0  0  0
  2  3  1  0  0  0  0
  3  4  2  0  0  0  0
  3  8  1  0  0  0  0
  4  5  1  0  0  0  0
  4 31  1  0  0  0  0
  5  6  2  0  0  0  0
  5 32  1  0  0  0  0
  6  7  1  0  0  0  0
  6  9  1  0  0  0  0
  7  8  2  0  0  0  0
  7 33  1  0  0  0  0
  8 34  1  0  0  0  0
  9 10  2  0  0  0  0
  9 20  1  0  0  0  0
 10 11  1  0  0  0  0
 10 19  1  0  0  0  0
 11 12  2  0  0  0  0
 11 16  1  0  0  0  0
 12 13  1  0  0  0  0
 12 35  1  0  0  0  0
 13 14  2  0  0  0  0
 13 36  1  0  0  0  0
 14 15  1  0  0  0  0
 14 17  1  0  0  0  0
 15 16  2  0  0  0  0
 15 37  1  0  0  0  0
 16 38  1  0  0  0  0
 17 18  1  0  0  0  0
 18 39  1  0  0  0  0
 18 40  1  0  0  0  0
 18 41  1  0  0  0  0
 20 21  2  0  0  0  0
 20 25  1  0  0  0  0
 21 22  1  0  0  0  0
 21 42  1  0  0  0  0
 22 23  2  0  0  0  0
 22 43  1  0  0  0  0
 23 24  1  0  0  0  0
 23 26  1  0  0  0  0
 24 25  2  0  0  0  0
 24 44  1  0  0  0  0
 25 45  1  0  0  0  0
 26 27  1  0  0  0  0
 27 46  1  0  0  0  0
 27 47  1  0  0  0  0
 27 48  1  0  0  0  0
M  END
$$$$

 OpenBabel05152416213D

 42 41  0  0  0  0  0  0  0  0999 V2000
    1.5230    0.9355    1.2966 B   0  5  0  0  0  0  0  0  0  0  0  0
    1.0167    1.9938    0.4286 F   0  0  0  0  0  0  0  0  0  0  0  0
    0.8272   -0.2345    1.0848 F   0  0  0  0  0  0  0  0  0  0  0  0
    1.1871    1.1568    2.6688 F   0  0  0  0  0  0  0  0  0  0  0  0
    2.9239    0.6585    1.0030 F   0  0  0  0  0  0  0  0  0  0  0  0
    0.6735   -0.3362   -1.4095 C   0  0  0  0  0  0  0  0  0  0  0  0
    0.3824   -1.7973   -1.2463 C   0  0  0  0  0  0  0  0  0  0  0  0
    1.0309   -2.7146   -0.1039 C   0  0  0  0  0  0  0  0  0  0  0  0
    0.5288   -2.7282    1.4019 C   0  0  0  0  0  0  0  0  0  0  0  0
   -1.0000   -2.6310    1.4246 C   0  0  0  0  0  0  0  0  0  0  0  0
   -1.5994   -3.8664    0.7368 C   0  0  0  0  0  0  0  0  0  0  0  0
   -1.1368   -5.1518    1.4493 C   0  0  0  0  0  0  0  0  0  0  0  0
   -1.5794   -5.1321    2.9172 C   0  0  0  0  0  0  0  0  0  0  0  0
   -3.0409   -5.0538    2.9570 N   0  0  0  0  0  0  0  0  0  0  0  0
   -3.8227   -3.9650    2.9410 C   0  0  0  0  0  0  0  0  0  0  0  0
   -5.1362   -4.3838    2.9030 C   0  0  0  0  0  0  0  0  0  0  0  0
   -5.1372   -5.7159    2.9006 N   0  3  0  0  0  0  0  0  0  0  0  0
   -3.8536   -6.1277    2.9232 C   0  0  0  0  0  0  0  0  0  0  0  0
   -6.3039   -6.5879    2.8732 C   0  0  0  0  0  0  0  0  0  0  0  0
   -0.1418    0.0665   -0.7700 H   0  0  0  0  0  0  0  0  0  0  0  0
    0.0894    0.5140   -1.0196 H   0  0  0  0  0  0  0  0  0  0  0  0
    1.7429   -0.2224   -1.1044 H   0  0  0  0  0  0  0  0  0  0  0  0
   -0.7225   -1.9071   -1.3373 H   0  0  0  0  0  0  0  0  0  0  0  0
    0.8593   -2.0934   -2.1950 H   0  0  0  0  0  0  0  0  0  0  0  0
    0.8134   -3.7317   -0.4949 H   0  0  0  0  0  0  0  0  0  0  0  0
    2.1349   -2.6493   -0.1040 H   0  0  0  0  0  0  0  0  0  0  0  0
    0.9361   -3.6003    1.9632 H   0  0  0  0  0  0  0  0  0  0  0  0
    0.9420   -2.0103    2.1327 H   0  0  0  0  0  0  0  0  0  0  0  0
   -1.3605   -2.5055    2.4650 H   0  0  0  0  0  0  0  0  0  0  0  0
   -1.3485   -1.7081    0.9226 H   0  0  0  0  0  0  0  0  0  0  0  0
   -2.7004   -3.7921    0.7091 H   0  0  0  0  0  0  0  0  0  0  0  0
   -1.3174   -3.9021   -0.3293 H   0  0  0  0  0  0  0  0  0  0  0  0
   -1.5446   -6.0335    0.9230 H   0  0  0  0  0  0  0  0  0  0  0  0
   -0.0391   -5.2902    1.3900 H   0  0  0  0  0  0  0  0  0  0  0  0
   -1.2199   -6.0434    3.4263 H   0  0  0  0  0  0  0  0  0  0  0  0
   -1.1448   -4.2986    3.5084 H   0  0  0  0  0  0  0  0  0  0  0  0
   -3.4990   -2.9316    2.9285 H   0  0  0  0  0  0  0  0  0  0  0  0
   -6.0131   -3.7502    2.8702 H   0  0  0  0  0  0  0  0  0  0  0  0
   -3.5180   -7.1471    2.9043 H   0  0  0  0  0  0  0  0  0  0  0  0
   -6.2721   -7.2228    1.9661 H   0  0  0  0  0  0  0  0  0  0  0  0
   -6.2978   -7.2194    3.7832 H   0  0  0  0  0  0  0  0  0  0  0  0
   -7.2251   -5.9687    2.8614 H   0  0  0  0  0  0  0  0  0  0  0  0
  1  2  1  0  0  0  0
  1  3  1  0  0  0  0
  1  4  1  0  0  0  0
  1  5  1  0  0  0  0
  6  7  1  0  0  0  0
  6 20  1  0  0  0  0
  6 21  1  0  0  0  0
  6 22  1  0  0  0  0
  7  8  1  0  0  0  0
  7 23  1  0  0  0  0
  7 24  1  0  0  0  0
  8  9  1  0  0  0  0
  8 25  1  0  0  0  0
  8 26  1  0  0  0  0
  9 10  1  0  0  0  0
  9 27  1  0  0  0  0
  9 28  1  0  0  0  0
 10 11  1  0  0  0  0
 10 29  1  0  0  0  0
 10 30  1  0  0  0  0
 11 12  1  0  0  0  0
 11 31  1  0  0  0  0
 11 32  1  0  0  0  0
 12 13  1  0  0  0  0
 12 33  1  0  0  0  0
 12 34  1  0  0  0  0
 13 14  1  0  0  0  0
 13 35  1  0  0  0  0
 13 36  1  0  0  0  0
 14 15  1  0  0  0  0
 14 18  1  0  0  0  0
 15 16  2  0  0  0  0
 15 37  1  0  0  0  0
 16 17  1  0  0  0  0
 16 38  1  0  0  0  0
 17 18  2  0  0  0  0
 17 19  1  0  0  0  0
 18 39  1  0  0  0  0
 19 40  1  0  0  0  0
 19 41  1  0  0  0  0
 19 42  1  0  0  0  0
M  CHG  2   1  -1  17   1
M  END
$$$$

 OpenBabel05152416213D

 16 17  0  0  0  0  0  0  0  0999 V2000
   -2.2733   -0.0394    0.0015 C   0  0  0  0  0  0  0  0  0  0  0  0
   -1.4942   -1.1534    0.0018 N   0  0  0  0  0  0  0  0  0  0  0  0
   -0.2445   -0.6577    0.0002 C   0  0  0  0  0  0  0  0  0  0  0  0
   -0.2712    0.6969   -0.0008 C   0  0  0  0  0  0  0  0  0  0  0  0
   -1.5496    1.1072    0.0000 N   0  0  0  0  0  0  0  0  0  0  0  0
    0.9212    1.4179   -0.0029 C   0  0  0  0  0  0  0  0  0  0  0  0
    0.9464    2.8519   -0.0043 S   0  0  0  0  0  0  0  0  0  0  0  0
    2.0882    0.7086   -0.0044 N   0  0  0  0  0  0  0  0  0  0  0  0
    2.0971   -0.6652   -0.0038 C   0  0  0  0  0  0  0  0  0  0  0  0
    0.9150   -1.3609   -0.0011 N   0  0  0  0  0  0  0  0  0  0  0  0
    3.3318   -1.3560   -0.0072 N   0  0  0  0  0  0  0  0  0  0  0  0
   -3.3556   -0.0641    0.0022 H   0  0  0  0  0  0  0  0  0  0  0  0
   -1.9155    2.0854   -0.0006 H   0  0  0  0  0  0  0  0  0  0  0  0
    0.9028   -2.4058   -0.0007 H   0  0  0  0  0  0  0  0  0  0  0  0
    3.3594   -2.3860   -0.0094 H   0  0  0  0  0  0  0  0  0  0  0  0
    4.2205   -0.8342   -0.0098 H   0  0  0  0  0  0  0  0  0  0  0  0
  1  2  2  0  0  0  0
  1  5  1  0  0  0  0
  1 12  1  0  0  0  0
  2  3  1  0  0  0  0
  3  4  2  0  0  0  0
  3 10  1  0  0  0  0
  4  5  1  0  0  0  0
  4  6  1  0  0  0  0
  5 13  1  0  0  0  0
  6  7  2  0  0  0  0
  6  8  1  0  0  0  0
  8  9  2  0  0  0  0
  9 10  1  0  0  0  0
  9 11  1  0  0  0  0
 10 14  1  0  0  0  0
 11 15  1  0  0  0  0
 11 16  1  0  0  0  0
M  END
$$$$

 OpenBabel05152416213D

 25 26  0  0  0  0  0  0  0  0999 V2000
    1.4054   -0.2142    0.0419 C   0  0  0  0  0  0  0  0  0  0  0  0
    0.8959    1.0860    0.0391 C   0  0  0  0  0  0  0  0  0  0  0  0
   -0.4837    1.2969    0.0009 C   0  0  0  0  0  0  0  0  0  0  0  0
   -1.3714    0.2055   -0.0458 C   0  0  0  0  0  0  0  0  0  0  0  0
   -0.8427   -1.1012   -0.0247 C   0  0  0  0  0  0  0  0  0  0  0  0
    0.5359   -1.3050    0.0212 C   0  0  0  0  0  0  0  0  0  0  0  0
   -2.8271    0.4475   -0.2140 C   0  0  0  0  0  0  0  0  0  0  0  0
   -3.2227    1.5914   -0.4034 O   0  0  0  0  0  0  0  0  0  0  0  0
   -3.8100   -0.6524   -0.3152 C   0  0  0  0  0  0  0  0  0  0  0  0
   -4.6599   -0.7649   -1.4401 C   0  0  0  0  0  0  0  0  0  0  0  0
   -5.6266   -1.7734   -1.4808 C   0  0  0  0  0  0  0  0  0  0  0  0
   -5.7413   -2.6848   -0.4282 C   0  0  0  0  0  0  0  0  0  0  0  0
   -4.8814   -2.5988    0.6700 C   0  0  0  0  0  0  0  0  0  0  0  0
   -3.9202   -1.5875    0.7275 C   0  0  0  0  0  0  0  0  0  0  0  0
   -5.0144   -3.7503    1.9856 Cl  0  0  0  0  0  0  0  0  0  0  0  0
   -4.5335    0.0481   -2.5141 O   0  0  0  0  0  0  0  0  0  0  0  0
    2.4738   -0.3776    0.0524 H   0  0  0  0  0  0  0  0  0  0  0  0
    1.5695    1.9323    0.0487 H   0  0  0  0  0  0  0  0  0  0  0  0
   -0.8550    2.3152   -0.0182 H   0  0  0  0  0  0  0  0  0  0  0  0
   -1.4796   -1.9715   -0.0754 H   0  0  0  0  0  0  0  0  0  0  0  0
    0.9278   -2.3135    0.0192 H   0  0  0  0  0  0  0  0  0  0  0  0
   -6.2813   -1.8604   -2.3389 H   0  0  0  0  0  0  0  0  0  0  0  0
   -6.4915   -3.4627   -0.4732 H   0  0  0  0  0  0  0  0  0  0  0  0
   -3.2727   -1.5152    1.5930 H   0  0  0  0  0  0  0  0  0  0  0  0
   -3.7804    0.6421   -2.6412 H   0  0  0  0  0  0  0  0  0  0  0  0
  1  2  2  0  0  0  0
  1  6  1  0  0  0  0
  1 17  1  0  0  0  0
  2  3  1  0  0  0  0
  2 18  1  0  0  0  0
  3  4  2  0  0  0  0
  3 19  1  0  0  0  0
  4  5  1  0  0  0  0
  4  7  1  0  0  0  0
  5  6  2  0  0  0  0
  5 20  1  0  0  0  0
  6 21  1  0  0  0  0
  7  8  2  0  0  0  0
  7  9  1  0  0  0  0
  9 10  2  0  0  0  0
  9 14  1  0  0  0  0
 10 11  1  0  0  0  0
 10 16  1  0  0  0  0
 11 12  2  0  0  0  0
 11 22  1  0  0  0  0
 12 13  1  0  0  0  0
 12 23  1  0  0  0  0
 13 14  2  0  0  0  0
 13 15  1  0  0  0  0
 14 24  1  0  0  0  0
 16 25  1  0  0  0  0
M  END
$$$$

 OpenBabel05152416213D

 41 42  0  0  0  0  0  0  0  0999 V2000
   -1.0273    1.2929   -0.0197 C   0  0  0  0  0  0  0  0  0  0  0  0
    0.3629    1.2777   -0.0165 C   0  0  0  0  0  0  0  0  0  0  0  0
    1.0644    0.0569   -0.0113 C   0  0  0  0  0  0  0  0  0  0  0  0
    0.3727   -1.1533   -0.0095 C   0  0  0  0  0  0  0  0  0  0  0  0
   -0.9984   -1.1404   -0.0073 C   0  0  0  0  0  0  0  0  0  0  0  0
   -1.7066    0.0837   -0.0119 C   0  0  0  0  0  0  0  0  0  0  0  0
   -3.1451    0.0479    0.0017 C   0  0  0  0  0  0  0  0  0  0  0  0
   -3.5682   -1.0878    0.1613 O   0  0  0  0  0  0  0  0  0  0  0  0
   -3.9569    1.1701   -0.1547 O   0  0  0  0  0  0  0  0  0  0  0  0
   -5.3638    1.3900   -0.2251 C   0  0  0  0  0  0  0  0  0  0  0  0
   -6.0686    0.5632   -1.2985 C   0  0  0  0  0  0  0  0  0  0  0  0
   -5.7881   -0.9380   -1.2027 C   0  0  0  0  0  0  0  0  0  0  0  0
   -6.1059   -1.5239    0.0558 O   0  0  0  0  0  0  0  0  0  0  0  0
   -5.8240   -1.1979    1.3835 C   0  0  0  0  0  0  0  0  0  0  0  0
   -5.1022   -0.2841    1.7443 O   0  0  0  0  0  0  0  0  0  0  0  0
   -6.2323   -1.9659    2.5068 C   0  0  0  0  0  0  0  0  0  0  0  0
   -6.1664   -3.3481    2.4923 C   0  0  0  0  0  0  0  0  0  0  0  0
   -6.4276   -4.0328    3.6739 C   0  0  0  0  0  0  0  0  0  0  0  0
   -6.7738   -3.3270    4.8438 C   0  0  0  0  0  0  0  0  0  0  0  0
   -6.8475   -1.9318    4.8327 C   0  0  0  0  0  0  0  0  0  0  0  0
   -6.5634   -1.2554    3.6724 C   0  0  0  0  0  0  0  0  0  0  0  0
   -7.0292   -4.0174    6.0407 N   0  0  0  0  0  0  0  0  0  0  0  0
    2.4689    0.0387   -0.0043 N   0  0  0  0  0  0  0  0  0  0  0  0
   -1.5765    2.2260   -0.0149 H   0  0  0  0  0  0  0  0  0  0  0  0
    0.8876    2.2191   -0.0147 H   0  0  0  0  0  0  0  0  0  0  0  0
    0.8843   -2.1081   -0.0069 H   0  0  0  0  0  0  0  0  0  0  0  0
   -1.5016   -2.1070   -0.0047 H   0  0  0  0  0  0  0  0  0  0  0  0
   -5.9548    1.2963    0.7020 H   0  0  0  0  0  0  0  0  0  0  0  0
   -5.5630    2.4652   -0.3782 H   0  0  0  0  0  0  0  0  0  0  0  0
   -7.1672    0.7136   -1.2262 H   0  0  0  0  0  0  0  0  0  0  0  0
   -5.7232    0.9416   -2.2843 H   0  0  0  0  0  0  0  0  0  0  0  0
   -6.3358   -1.4734   -2.0006 H   0  0  0  0  0  0  0  0  0  0  0  0
   -4.7657   -1.1091   -1.5914 H   0  0  0  0  0  0  0  0  0  0  0  0
   -5.8495   -3.8726    1.5973 H   0  0  0  0  0  0  0  0  0  0  0  0
   -6.3372   -5.1071    3.6797 H   0  0  0  0  0  0  0  0  0  0  0  0
   -7.0988   -1.3608    5.7175 H   0  0  0  0  0  0  0  0  0  0  0  0
   -6.5886   -0.1656    3.6762 H   0  0  0  0  0  0  0  0  0  0  0  0
   -7.2807   -3.4965    6.8928 H   0  0  0  0  0  0  0  0  0  0  0  0
   -6.9582   -5.0419    6.0680 H   0  0  0  0  0  0  0  0  0  0  0  0
    2.9722   -0.8600    0.0030 H   0  0  0  0  0  0  0  0  0  0  0  0
    2.9943    0.9214    0.0010 H   0  0  0  0  0  0  0  0  0  0  0  0
  1  2  2  0  0  0  0
  1  6  1  0  0  0  0
  1 24  1  0  0  0  0
  2  3  1  0  0  0  0
  2 25  1  0  0  0  0
  3  4  2  0  0  0  0
  3 23  1  0  0  0  0
  4  5  1  0  0  0  0
  4 26  1  0  0  0  0
  5  6  2  0  0  0  0
  5 27  1  0  0  0  0
  6  7  1  0  0  0  0
  7  8  2  0  0  0  0
  7  9  1  0  0  0  0
  9 10  1  0  0  0  0
 10 11  1  0  0  0  0
 10 28  1  0  0  0  0
 10 29  1  0  0  0  0
 11 12  1  0  0  0  0
 11 30  1  0  0  0  0
 11 31  1  0  0  0  0
 12 13  1  0  0  0  0
 12 32  1  0  0  0  0
 12 33  1  0  0  0  0
 13 14  1  0  0  0  0
 14 15  2  0  0  0  0
 14 16  1  0  0  0  0
 16 17  2  0  0  0  0
 16 21  1  0  0  0  0
 17 18  1  0  0  0  0
 17 34  1  0  0  0  0
 18 19  2  0  0  0  0
 18 35  1  0  0  0  0
 19 20  1  0  0  0  0
 19 22  1  0  0  0  0
 20 21  2  0  0  0  0
 20 36  1  0  0  0  0
 21 37  1  0  0  0  0
 22 38  1  0  0  0  0
 22 39  1  0  0  0  0
 23 40  1  0  0  0  0
 23 41  1  0  0  0  0
M  END
$$$$

 OpenBabel05152416213D

 69 70  0  0  0  0  0  0  0  0999 V2000
    0.8587    0.4421   -0.2521 C   0  0  0  0  0  0  0  0  0  0  0  0
    0.4469   -0.7570   -1.1570 C   0  0  0  0  0  0  0  0  0  0  0  0
    0.9433   -2.1032   -0.8007 N   0  0  0  0  0  0  0  0  0  0  0  0
   -0.0152   -3.2131   -0.5487 C   0  0  0  0  0  0  0  0  0  0  0  0
    0.0501   -4.4517   -1.4766 C   0  0  0  0  0  0  0  0  0  0  0  0
    2.3399   -2.3587   -0.6695 C   0  0  0  0  0  0  0  0  0  0  0  0
    2.8905   -3.4352   -1.3245 C   0  0  0  0  0  0  0  0  0  0  0  0
    4.1899   -3.7660   -1.1684 C   0  0  0  0  0  0  0  0  0  0  0  0
    5.0820   -3.0333   -0.3659 C   0  0  0  0  0  0  0  0  0  0  0  0
    4.5486   -1.8787    0.2385 C   0  0  0  0  0  0  0  0  0  0  0  0
    3.1995   -1.5666    0.1123 C   0  0  0  0  0  0  0  0  0  0  0  0
    6.5530   -3.3728   -0.2449 C   0  0  0  0  0  0  0  0  0  0  0  0
    7.1324   -4.5315   -0.7240 C   0  0  0  0  0  0  0  0  0  0  0  0
    6.4003   -5.6895   -1.3043 C   0  0  0  0  0  0  0  0  0  0  0  0
    6.9428   -6.5184   -2.1604 C   0  0  0  0  0  0  0  0  0  0  0  0
    8.3802   -6.4394   -2.4789 C   0  0  0  0  0  0  0  0  0  0  0  0
    8.9156   -7.0763   -3.4753 N   0  3  0  0  0  0  0  0  0  0  0  0
    8.1224   -7.8842   -4.4357 C   0  0  0  0  0  0  0  0  0  0  0  0
    8.2319   -7.3466   -5.8557 C   0  0  0  0  0  0  0  0  0  0  0  0
   10.3652   -7.0219   -3.6868 C   0  0  0  0  0  0  0  0  0  0  0  0
   10.8330   -5.5980   -4.0464 C   0  0  0  0  0  0  0  0  0  0  0  0
    9.1801   -5.6370   -1.4753 C   0  0  0  0  0  0  0  0  0  0  0  0
    8.5997   -4.7498   -0.6709 C   0  0  0  0  0  0  0  0  0  0  0  0
    7.4612   -2.3725    0.4042 C   0  0  0  0  0  0  0  0  0  0  0  0
    8.5506   -1.7599   -0.2734 C   0  0  0  0  0  0  0  0  0  0  0  0
    9.4706   -0.9891    0.4470 C   0  0  0  0  0  0  0  0  0  0  0  0
    9.2635   -0.7502    1.8066 C   0  0  0  0  0  0  0  0  0  0  0  0
    8.1501   -1.2826    2.4541 C   0  0  0  0  0  0  0  0  0  0  0  0
    7.2677   -2.1015    1.7641 C   0  0  0  0  0  0  0  0  0  0  0  0
   10.3653    0.3063    2.7178 S   0  0  0  0  0  0  0  0  0  0  0  0
   11.8193   -0.1873    2.7633 O   0  0  0  0  0  0  0  0  0  0  0  0
   10.4966    1.6702    2.0263 O   0  0  0  0  0  0  0  0  0  0  0  0
    9.9256    0.6735    4.3345 O   0  5  0  0  0  0  0  0  0  0  0  0
    8.7339   -1.8597   -2.0630 S   0  0  0  0  0  0  0  0  0  0  0  0
    8.8300   -0.4418   -2.6489 O   0  0  0  0  0  0  0  0  0  0  0  0
   10.0523   -2.4797   -2.5414 O   0  0  0  0  0  0  0  0  0  0  0  0
    7.4808   -2.5861   -2.9841 O   0  5  0  0  0  0  0  0  0  0  0  0
    0.7657   -1.6010    1.6443 Na  0  3  0  0  0  0  0  0  0  0  0  0
    0.6156    0.3411    0.8246 H   0  0  0  0  0  0  0  0  0  0  0  0
    0.3217    1.3520   -0.5745 H   0  0  0  0  0  0  0  0  0  0  0  0
    1.9218    0.7254   -0.3792 H   0  0  0  0  0  0  0  0  0  0  0  0
   -0.6587   -0.7740   -1.1866 H   0  0  0  0  0  0  0  0  0  0  0  0
    0.7986   -0.5160   -2.1836 H   0  0  0  0  0  0  0  0  0  0  0  0
    0.1367   -3.5914    0.4845 H   0  0  0  0  0  0  0  0  0  0  0  0
   -1.0523   -2.8417   -0.6262 H   0  0  0  0  0  0  0  0  0  0  0  0
    0.8992   -5.1242   -1.2364 H   0  0  0  0  0  0  0  0  0  0  0  0
   -0.7964   -5.1398   -1.2865 H   0  0  0  0  0  0  0  0  0  0  0  0
    0.0340   -4.1487   -2.5474 H   0  0  0  0  0  0  0  0  0  0  0  0
    2.3642   -4.0451   -2.0226 H   0  0  0  0  0  0  0  0  0  0  0  0
    4.3798   -4.5863   -1.7792 H   0  0  0  0  0  0  0  0  0  0  0  0
    5.1430   -1.1947    0.8189 H   0  0  0  0  0  0  0  0  0  0  0  0
    2.8729   -0.7229    0.6694 H   0  0  0  0  0  0  0  0  0  0  0  0
    5.4096   -5.9755   -1.0388 H   0  0  0  0  0  0  0  0  0  0  0  0
    6.2791   -7.2738   -2.5455 H   0  0  0  0  0  0  0  0  0  0  0  0
    8.4392   -8.9438   -4.3856 H   0  0  0  0  0  0  0  0  0  0  0  0
    7.0387   -7.8885   -4.2605 H   0  0  0  0  0  0  0  0  0  0  0  0
    9.2704   -7.4145   -6.2270 H   0  0  0  0  0  0  0  0  0  0  0  0
    7.5806   -7.9507   -6.5241 H   0  0  0  0  0  0  0  0  0  0  0  0
    7.8903   -6.2892   -5.8863 H   0  0  0  0  0  0  0  0  0  0  0  0
   10.8784   -7.4027   -2.7769 H   0  0  0  0  0  0  0  0  0  0  0  0
   10.6674   -7.6908   -4.5137 H   0  0  0  0  0  0  0  0  0  0  0  0
   10.6348   -4.8354   -3.2785 H   0  0  0  0  0  0  0  0  0  0  0  0
   11.9301   -5.5996   -4.1882 H   0  0  0  0  0  0  0  0  0  0  0  0
   10.3162   -5.2450   -4.9592 H   0  0  0  0  0  0  0  0  0  0  0  0
   10.2547   -5.7185   -1.3928 H   0  0  0  0  0  0  0  0  0  0  0  0
    9.2363   -4.1654   -0.0192 H   0  0  0  0  0  0  0  0  0  0  0  0
   10.3323   -0.5578   -0.0511 H   0  0  0  0  0  0  0  0  0  0  0  0
    7.9706   -1.0760    3.4996 H   0  0  0  0  0  0  0  0  0  0  0  0
    6.4277   -2.5343    2.2921 H   0  0  0  0  0  0  0  0  0  0  0  0
  1  2  1  0  0  0  0
  1 39  1  0  0  0  0
  1 40  1  0  0  0  0
  1 41  1  0  0  0  0
  2  3  1  0  0  0  0
  2 42  1  0  0  0  0
  2 43  1  0  0  0  0
  3  4  1  0  0  0  0
  3  6  1  0  0  0  0
  4  5  1  0  0  0  0
  4 44  1  0  0  0  0
  4 45  1  0  0  0  0
  5 46  1  0  0  0  0
  5 47  1  0  0  0  0
  5 48  1  0  0  0  0
  6  7  2  0  0  0  0
  6 11  1  0  0  0  0
  7  8  1  0  0  0  0
  7 49  1  0  0  0  0
  8  9  2  0  0  0  0
  8 50  1  0  0  0  0
  9 10  1  0  0  0  0
  9 12  1  0  0  0  0
 10 11  2  0  0  0  0
 10 51  1  0  0  0  0
 11 52  1  0  0  0  0
 12 13  2  0  0  0  0
 12 24  1  0  0  0  0
 13 14  1  0  0  0  0
 13 23  1  0  0  0  0
 14 15  2  0  0  0  0
 14 53  1  0  0  0  0
 15 16  1  0  0  0  0
 15 54  1  0  0  0  0
 16 17  2  0  0  0  0
 16 22  1  0  0  0  0
 17 18  1  0  0  0  0
 17 20  1  0  0  0  0
 18 19  1  0  0  0  0
 18 55  1  0  0  0  0
 18 56  1  0  0  0  0
 19 57  1  0  0  0  0
 19 58  1  0  0  0  0
 19 59  1  0  0  0  0
 20 21  1  0  0  0  0
 20 60  1  0  0  0  0
 20 61  1  0  0  0  0
 21 62  1  0  0  0  0
 21 63  1  0  0  0  0
 21 64  1  0  0  0  0
 22 23  2  0  0  0  0
 22 65  1  0  0  0  0
 23 66  1  0  0  0  0
 24 25  2  0  0  0  0
 24 29  1  0  0  0  0
 25 26  1  0  0  0  0
 25 34  1  0  0  0  0
 26 27  2  0  0  0  0
 26 67  1  0  0  0  0
 27 28  1  0  0  0  0
 27 30  1  0  0  0  0
 28 29  2  0  0  0  0
 28 68  1  0  0  0  0
 29 69  1  0  0  0  0
 30 31  2  0  0  0  0
 30 32  2  0  0  0  0
 30 33  1  0  0  0  0
 34 35  2  0  0  0  0
 34 36  2  0  0  0  0
 34 37  1  0  0  0  0
M  CHG  4  17   1  33  -1  37  -1  38   1
M  END
$$$$

 OpenBabel05152416213D

 39 41  0  0  0  0  0  0  0  0999 V2000
    1.0076   -1.1862   -0.4364 C   0  0  0  0  0  0  0  0  0  0  0  0
    0.5323   -2.0531    0.6335 C   0  0  0  0  0  0  0  0  0  0  0  0
    1.0445   -1.6256    2.0608 C   0  0  0  0  0  0  0  0  0  0  0  0
    0.5140   -0.3351    2.8488 C   0  0  0  0  0  0  0  0  0  0  0  0
   -0.9301   -0.1315    2.5708 C   0  0  0  0  0  0  0  0  0  0  0  0
   -0.9256    0.7598    1.4502 O   0  0  0  0  0  0  0  0  0  0  0  0
    0.3189    1.5095    1.4950 C   0  0  0  0  0  0  0  0  0  0  0  0
    1.0941    0.9464    2.5645 O   0  0  0  0  0  0  0  0  0  0  0  0
    1.1318    1.4785    0.2011 C   0  0  0  0  0  0  0  0  0  0  0  0
    0.2513    1.5950   -1.1234 N   0  0  0  0  0  0  0  0  0  0  0  0
   -0.6224    2.5786   -1.5332 C   0  0  0  0  0  0  0  0  0  0  0  0
   -1.2573    2.2556   -2.6783 N   0  0  0  0  0  0  0  0  0  0  0  0
   -0.7771    1.0609   -2.9761 C   0  0  0  0  0  0  0  0  0  0  0  0
    0.1542    0.6816   -2.0626 N   0  0  0  0  0  0  0  0  0  0  0  0
    0.0557    3.0201    1.5495 C   0  0  0  0  0  0  0  0  0  0  0  0
    0.5825    4.0485    0.5999 C   0  0  0  0  0  0  0  0  0  0  0  0
   -0.0114    5.2682    0.5666 C   0  0  0  0  0  0  0  0  0  0  0  0
   -0.9417    5.6242    1.4993 C   0  0  0  0  0  0  0  0  0  0  0  0
   -1.3405    4.7303    2.4955 C   0  0  0  0  0  0  0  0  0  0  0  0
   -0.8738    3.4228    2.5027 C   0  0  0  0  0  0  0  0  0  0  0  0
   -1.5612    7.2402    1.3919 Cl  0  0  0  0  0  0  0  0  0  0  0  0
    1.8112    4.0751   -0.7667 Cl  0  0  0  0  0  0  0  0  0  0  0  0
    0.2217   -0.4914   -0.1907 H   0  0  0  0  0  0  0  0  0  0  0  0
    0.8663   -1.4439   -1.4756 H   0  0  0  0  0  0  0  0  0  0  0  0
    2.0838   -0.8843   -0.5177 H   0  0  0  0  0  0  0  0  0  0  0  0
   -0.6013   -2.1257    0.5923 H   0  0  0  0  0  0  0  0  0  0  0  0
    0.9274   -3.0040    0.2797 H   0  0  0  0  0  0  0  0  0  0  0  0
    0.6927   -2.5032    2.6496 H   0  0  0  0  0  0  0  0  0  0  0  0
    2.1498   -1.6427    2.0994 H   0  0  0  0  0  0  0  0  0  0  0  0
    0.7011   -0.5779    3.9310 H   0  0  0  0  0  0  0  0  0  0  0  0
   -1.4635    0.2991    3.4533 H   0  0  0  0  0  0  0  0  0  0  0  0
   -1.4344   -1.1180    2.4065 H   0  0  0  0  0  0  0  0  0  0  0  0
    2.0665    2.0421    0.2627 H   0  0  0  0  0  0  0  0  0  0  0  0
    1.8810    0.7395    0.4458 H   0  0  0  0  0  0  0  0  0  0  0  0
   -0.8734    3.5043   -1.1038 H   0  0  0  0  0  0  0  0  0  0  0  0
   -1.1230    0.4801   -3.8234 H   0  0  0  0  0  0  0  0  0  0  0  0
    0.2593    5.9436   -0.2389 H   0  0  0  0  0  0  0  0  0  0  0  0
   -2.0495    5.0335    3.2385 H   0  0  0  0  0  0  0  0  0  0  0  0
   -1.2661    2.7147    3.2275 H   0  0  0  0  0  0  0  0  0  0  0  0
  1  2  1  0  0  0  0
  1 23  1  0  0  0  0
  1 24  1  0  0  0  0
  1 25  1  0  0  0  0
  2  3  1  0  0  0  0
  2 26  1  0  0  0  0
  2 27  1  0  0  0  0
  3  4  1  0  0  0  0
  3 28  1  0  0  0  0
  3 29  1  0  0  0  0
  4  5  1  0  0  0  0
  4  8  1  0  0  0  0
  4 30  1  0  0  0  0
  5  6  1  0  0  0  0
  5 31  1  0  0  0  0
  5 32  1  0  0  0  0
  6  7  1  0  0  0  0
  7  8  1  0  0  0  0
  7  9  1  0  0  0  0
  7 15  1  0  0  0  0
  9 10  1  0  0  0  0
  9 33  1  0  0  0  0
  9 34  1  0  0  0  0
 10 11  1  0  0  0  0
 10 14  1  0  0  0  0
 11 12  2  0  0  0  0
 11 35  1  0  0  0  0
 12 13  1  0  0  0  0
 13 14  2  0  0  0  0
 13 36  1  0  0  0  0
 15 16  2  0  0  0  0
 15 20  1  0  0  0  0
 16 17  1  0  0  0  0
 16 22  1  0  0  0  0
 17 18  2  0  0  0  0
 17 37  1  0  0  0  0
 18 19  1  0  0  0  0
 18 21  1  0  0  0  0
 19 20  2  0  0  0  0
 19 38  1  0  0  0  0
 20 39  1  0  0  0  0
M  END
$$$$

 OpenBabel05152416213D

 27 26  0  0  0  0  0  0  0  0999 V2000
    1.1923   -0.2162    0.3161 C   0  0  0  0  0  0  0  0  0  0  0  0
    0.8706    1.2376    0.4439 C   0  0  0  0  0  0  0  0  0  0  0  0
    0.5413    1.8744   -0.8045 C   0  0  0  0  0  0  0  0  0  0  0  0
   -0.1112    1.2438   -2.0236 C   0  0  0  0  0  0  0  0  0  0  0  0
   -0.8948    2.0050   -2.6643 O   0  0  0  0  0  0  0  0  0  0  0  0
   -0.0452   -0.0202   -2.4208 O   0  0  0  0  0  0  0  0  0  0  0  0
   -0.5006   -0.4491   -3.6493 C   0  0  0  0  0  0  0  0  0  0  0  0
    0.9180    1.8389    1.7939 O   0  0  0  0  0  0  0  0  0  0  0  0
    0.3414    3.3867    2.3082 P   0  0  0  0  0  0  0  0  0  0  0  0
    1.7300    4.0072    1.9997 O   0  0  0  0  0  0  0  0  0  0  0  0
   -0.2580    3.6857    0.7999 O   0  0  0  0  0  0  0  0  0  0  0  0
   -1.4852    3.0529    0.6991 C   0  0  0  0  0  0  0  0  0  0  0  0
   -0.2353    4.9346    2.8224 O   0  0  0  0  0  0  0  0  0  0  0  0
   -1.3236    5.5218    2.1158 C   0  0  0  0  0  0  0  0  0  0  0  0
    1.0709   -0.6662   -0.6757 H   0  0  0  0  0  0  0  0  0  0  0  0
    0.6404   -0.8397    1.0278 H   0  0  0  0  0  0  0  0  0  0  0  0
    2.2958   -0.2812    0.4125 H   0  0  0  0  0  0  0  0  0  0  0  0
    0.5263    2.9282   -0.9887 H   0  0  0  0  0  0  0  0  0  0  0  0
   -1.6148   -0.4310   -3.7005 H   0  0  0  0  0  0  0  0  0  0  0  0
   -0.0929    0.2367   -4.4287 H   0  0  0  0  0  0  0  0  0  0  0  0
   -0.1081   -1.4631   -3.8310 H   0  0  0  0  0  0  0  0  0  0  0  0
   -1.3045    3.4920   -0.2768 H   0  0  0  0  0  0  0  0  0  0  0  0
   -1.3972    1.9617    0.9706 H   0  0  0  0  0  0  0  0  0  0  0  0
   -2.0405    2.8535   -0.2293 H   0  0  0  0  0  0  0  0  0  0  0  0
   -1.0319    5.8173    1.0807 H   0  0  0  0  0  0  0  0  0  0  0  0
   -2.2235    4.8730    2.1418 H   0  0  0  0  0  0  0  0  0  0  0  0
   -1.6226    6.4708    2.5940 H   0  0  0  0  0  0  0  0  0  0  0  0
  1  2  1  0  0  0  0
  1 15  1  0  0  0  0
  1 16  1  0  0  0  0
  1 17  1  0  0  0  0
  2  3  2  0  0  0  0
  2  8  1  0  0  0  0
  3  4  1  0  0  0  0
  3 18  1  0  0  0  0
  4  5  2  0  0  0  0
  4  6  1  0  0  0  0
  6  7  1  0  0  0  0
  7 19  1  0  0  0  0
  7 20  1  0  0  0  0
  7 21  1  0  0  0  0
  8  9  1  0  0  0  0
  9 10  2  0  0  0  0
  9 11  1  0  0  0  0
  9 13  1  0  0  0  0
 11 12  1  0  0  0  0
 12 22  1  0  0  0  0
 12 23  1  0  0  0  0
 12 24  1  0  0  0  0
 13 14  1  0  0  0  0
 14 25  1  0  0  0  0
 14 26  1  0  0  0  0
 14 27  1  0  0  0  0
M  END
$$$$

 OpenBabel05152416213D

 62 64  0  0  1  0  0  0  0  0999 V2000
   -2.3250    1.3770    1.2655 C   0  0  0  0  0  0  0  0  0  0  0  0
   -2.7859    2.4767    2.1375 C   0  0  0  0  0  0  0  0  0  0  0  0
   -1.6098    3.3764    2.5790 C   0  0  2  0  0  0  0  0  0  0  0  0
   -0.1447    3.1237    1.8375 C   0  0  0  0  0  0  0  0  0  0  0  0
   -2.0034    3.3586    4.0207 C   0  0  0  0  0  0  0  0  0  0  0  0
   -2.3699    4.4470    4.5081 O   0  0  0  0  0  0  0  0  0  0  0  0
   -2.2995    2.1359    4.6873 O   0  0  0  0  0  0  0  0  0  0  0  0
   -1.9065    0.7318    5.0477 C   0  0  1  0  0  0  0  0  0  0  0  0
   -0.6945    0.1096    6.0629 C   0  0  0  0  0  0  0  0  0  0  0  0
   -0.4796   -1.3113    5.6479 C   0  0  0  0  0  0  0  0  0  0  0  0
   -1.8291   -1.9582    5.7906 C   0  0  0  0  0  0  0  0  0  0  0  0
   -3.0082   -1.2395    5.7275 C   0  0  0  0  0  0  0  0  0  0  0  0
   -3.1117    0.2201    5.4016 C   0  0  1  0  0  0  0  0  0  0  0  0
   -4.0119    1.1142    6.3529 C   0  0  2  0  0  0  0  0  0  0  0  0
   -5.4036    0.5648    5.9633 C   0  0  2  0  0  0  0  0  0  0  0  0
   -5.4202   -0.9971    5.9744 C   0  0  0  0  0  0  0  0  0  0  0  0
   -4.3200   -1.8047    5.8805 C   0  0  0  0  0  0  0  0  0  0  0  0
   -5.8793    1.0848    4.5558 C   0  0  0  0  0  0  0  0  0  0  0  0
   -3.9565    2.7475    6.3038 C   0  0  0  0  0  0  0  0  0  0  0  0
   -2.5686    3.4563    6.9480 C   0  0  0  0  0  0  0  0  0  0  0  0
   -0.8781    3.1822    6.7016 C   0  0  2  0  0  0  0  0  0  0  0  0
    0.1891    4.2769    6.5401 C   0  0  0  0  0  0  0  0  0  0  0  0
    1.5580    3.7348    5.7870 C   0  0  2  0  0  0  0  0  0  0  0  0
    1.2295    3.3757    4.3621 C   0  0  0  0  0  0  0  0  0  0  0  0
    0.3312    2.3128    4.5712 C   0  0  0  0  0  0  0  0  0  0  0  0
    0.2075    1.3964    3.7987 O   0  0  0  0  0  0  0  0  0  0  0  0
   -0.4458    2.4427    5.6943 O   0  0  0  0  0  0  0  0  0  0  0  0
    2.1516    2.5910    6.4050 O   0  0  0  0  0  0  0  0  0  0  0  0
   -1.9706    1.9123    0.3778 H   0  0  0  0  0  0  0  0  0  0  0  0
   -3.1479    0.6636    1.1453 H   0  0  0  0  0  0  0  0  0  0  0  0
   -1.5059    0.7650    1.7296 H   0  0  0  0  0  0  0  0  0  0  0  0
   -3.6921    3.0979    1.9943 H   0  0  0  0  0  0  0  0  0  0  0  0
   -3.2804    1.8259    2.8824 H   0  0  0  0  0  0  0  0  0  0  0  0
   -1.7796    4.4559    2.3082 H   0  0  0  0  0  0  0  0  0  0  0  0
    0.6098    3.9391    1.8250 H   0  0  0  0  0  0  0  0  0  0  0  0
    0.6563    2.3829    2.0226 H   0  0  0  0  0  0  0  0  0  0  0  0
   -0.0515    2.2081    1.2329 H   0  0  0  0  0  0  0  0  0  0  0  0
   -1.6183    0.2476    4.1499 H   0  0  0  0  0  0  0  0  0  0  0  0
   -0.7881    0.2071    7.1835 H   0  0  0  0  0  0  0  0  0  0  0  0
    0.3589    0.3982    5.8895 H   0  0  0  0  0  0  0  0  0  0  0  0
   -0.1140   -1.2988    4.5840 H   0  0  0  0  0  0  0  0  0  0  0  0
    0.3667   -1.7878    6.2192 H   0  0  0  0  0  0  0  0  0  0  0  0
   -1.8147   -3.0207    5.9663 H   0  0  0  0  0  0  0  0  0  0  0  0
   -3.5575    0.1890    4.3987 H   0  0  0  0  0  0  0  0  0  0  0  0
   -3.7480    0.8838    7.3997 H   0  0  0  0  0  0  0  0  0  0  0  0
   -6.0909    0.9499    6.7367 H   0  0  0  0  0  0  0  0  0  0  0  0
   -6.3712   -1.4754    6.0387 H   0  0  0  0  0  0  0  0  0  0  0  0
   -4.3681   -2.8792    5.8859 H   0  0  0  0  0  0  0  0  0  0  0  0
   -6.0104    2.1827    4.5236 H   0  0  0  0  0  0  0  0  0  0  0  0
   -5.2241    0.8734    3.6879 H   0  0  0  0  0  0  0  0  0  0  0  0
   -6.8309    0.6179    4.2797 H   0  0  0  0  0  0  0  0  0  0  0  0
   -4.1997    3.0874    5.2637 H   0  0  0  0  0  0  0  0  0  0  0  0
   -4.9067    3.2227    6.7000 H   0  0  0  0  0  0  0  0  0  0  0  0
   -2.7597    4.5545    6.8803 H   0  0  0  0  0  0  0  0  0  0  0  0
   -2.7284    3.2697    8.0260 H   0  0  0  0  0  0  0  0  0  0  0  0
   -0.6625    2.4663    7.5047 H   0  0  0  0  0  0  0  0  0  0  0  0
    0.3442    4.6402    7.5438 H   0  0  0  0  0  0  0  0  0  0  0  0
   -0.2556    5.0321    5.8489 H   0  0  0  0  0  0  0  0  0  0  0  0
    2.3122    4.5014    5.6264 H   0  0  0  0  0  0  0  0  0  0  0  0
    0.6496    4.2154    3.9330 H   0  0  0  0  0  0  0  0  0  0  0  0
    2.0389    3.0003    3.6918 H   0  0  0  0  0  0  0  0  0  0  0  0
    1.4523    2.0022    6.8067 H   0  0  0  0  0  0  0  0  0  0  0  0
  1  2  1  0  0  0  0
  1 29  1  0  0  0  0
  1 30  1  0  0  0  0
  1 31  1  0  0  0  0
  2 32  1  0  0  0  0
  2 33  1  0  0  0  0
  3  5  1  0  0  0  0
  3 34  1  6  0  0  0
  3  4  1  0  0  0  0
  3  2  1  0  0  0  0
  4 35  1  0  0  0  0
  4 36  1  0  0  0  0
  4 37  1  0  0  0  0
  5  6  2  0  0  0  0
  5  7  1  0  0  0  0
  8  9  1  0  0  0  0
  8 13  1  0  0  0  0
  8 38  1  6  0  0  0
  8  7  1  0  0  0  0
  9 10  1  0  0  0  0
  9 39  1  0  0  0  0
  9 40  1  0  0  0  0
 10 11  1  0  0  0  0
 10 41  1  0  0  0  0
 10 42  1  0  0  0  0
 11 12  2  0  0  0  0
 11 43  1  0  0  0  0
 12 13  1  0  0  0  0
 12 17  1  0  0  0  0
 13 14  1  0  0  0  0
 13 44  1  6  0  0  0
 14 15  1  0  0  0  0
 14 45  1  1  0  0  0
 14 19  1  0  0  0  0
 15 16  1  0  0  0  0
 15 46  1  1  0  0  0
 15 18  1  0  0  0  0
 16 17  2  0  0  0  0
 16 47  1  0  0  0  0
 17 48  1  0  0  0  0
 18 49  1  0  0  0  0
 18 50  1  0  0  0  0
 18 51  1  0  0  0  0
 19 20  1  0  0  0  0
 19 52  1  0  0  0  0
 19 53  1  0  0  0  0
 20 21  1  0  0  0  0
 20 54  1  0  0  0  0
 20 55  1  0  0  0  0
 21 22  1  0  0  0  0
 21 27  1  0  0  0  0
 21 56  1  1  0  0  0
 22 23  1  0  0  0  0
 22 57  1  0  0  0  0
 22 58  1  0  0  0  0
 23 24  1  0  0  0  0
 23 28  1  0  0  0  0
 23 59  1  6  0  0  0
 24 25  1  0  0  0  0
 24 60  1  0  0  0  0
 24 61  1  0  0  0  0
 25 26  2  0  0  0  0
 25 27  1  0  0  0  0
 28 62  1  0  0  0  0
M  END
$$$$

 OpenBabel05152416213D

 63 65  0  0  1  0  0  0  0  0999 V2000
    3.8513   -2.3839   -0.5153 C   0  0  0  0  0  0  0  0  0  0  0  0
    3.6707   -2.7149   -2.0672 C   0  0  0  0  0  0  0  0  0  0  0  0
    4.6399   -3.2308   -2.5874 O   0  0  0  0  0  0  0  0  0  0  0  0
    2.5989   -2.3349   -2.9294 O   0  0  0  0  0  0  0  0  0  0  0  0
    1.7306   -1.2557   -2.6375 C   0  0  1  0  0  0  0  0  0  0  0  0
    2.6764   -0.2186   -2.2494 C   0  0  2  0  0  0  0  0  0  0  0  0
    3.6505    0.1497   -3.1678 C   0  0  2  0  0  0  0  0  0  0  0  0
    2.9638    0.8616   -4.4989 C   0  0  2  0  0  0  0  0  0  0  0  0
    3.8527    1.8035   -5.6827 C   0  0  2  0  0  0  0  0  0  0  0  0
    4.9870    2.9221   -5.1673 C   0  0  0  0  0  0  0  0  0  0  0  0
    6.0043    2.3551   -3.9000 C   0  0  0  0  0  0  0  0  0  0  0  0
    5.3204    1.4831   -2.3570 C   0  0  0  0  0  0  0  0  0  0  0  0
    4.9656    2.8315   -1.4631 C   0  0  0  0  0  0  0  0  0  0  0  0
    5.8892    0.5623   -1.3302 C   0  0  0  0  0  0  0  0  0  0  0  0
    3.0825    2.5937   -6.5902 O   0  0  0  0  0  0  0  0  0  0  0  0
    1.2805    0.6100   -4.5735 C   0  0  2  0  0  0  0  0  0  0  0  0
    0.7746   -0.3282   -3.5748 C   0  0  2  0  0  0  0  0  0  0  0  0
   -0.1552    0.5414   -2.7805 O   0  0  0  0  0  0  0  0  0  0  0  0
    0.4748    1.7137   -2.0983 C   0  0  1  0  0  0  0  0  0  0  0  0
    1.1533    2.6107   -3.3519 C   0  0  0  0  0  0  0  0  0  0  0  0
    1.4962    1.4367   -5.0201 C   0  0  0  0  0  0  0  0  0  0  0  0
    1.5176    1.1209   -6.3170 O   0  0  0  0  0  0  0  0  0  0  0  0
   -0.3723    2.4228   -0.9943 C   0  0  0  0  0  0  0  0  0  0  0  0
    1.1958    1.1641   -0.8699 C   0  0  0  0  0  0  0  0  0  0  0  0
    1.8331    1.4745    0.3062 C   0  0  0  0  0  0  0  0  0  0  0  0
    0.1821   -1.3375   -4.5863 C   0  0  0  0  0  0  0  0  0  0  0  0
    0.0408    1.6586   -5.0155 O   0  0  0  0  0  0  0  0  0  0  0  0
    3.6798    1.4371   -3.8368 C   0  0  0  0  0  0  0  0  0  0  0  0
    3.4139    0.0935   -1.2362 O   0  0  0  0  0  0  0  0  0  0  0  0
    4.8459   -1.9041   -0.3078 H   0  0  0  0  0  0  0  0  0  0  0  0
    2.9151   -2.0621    0.0210 H   0  0  0  0  0  0  0  0  0  0  0  0
    4.3166   -1.4178   -0.2212 H   0  0  0  0  0  0  0  0  0  0  0  0
    0.9782   -1.6598   -1.9233 H   0  0  0  0  0  0  0  0  0  0  0  0
    2.6046   -0.7345   -1.3644 H   0  0  0  0  0  0  0  0  0  0  0  0
    3.8253   -0.7973   -3.8854 H   0  0  0  0  0  0  0  0  0  0  0  0
    4.1616    0.8839   -6.1799 H   0  0  0  0  0  0  0  0  0  0  0  0
    4.3862    3.8549   -4.9203 H   0  0  0  0  0  0  0  0  0  0  0  0
    5.4679    3.2527   -6.0619 H   0  0  0  0  0  0  0  0  0  0  0  0
    6.7851    3.0410   -3.8763 H   0  0  0  0  0  0  0  0  0  0  0  0
    6.5191    1.6413   -4.5908 H   0  0  0  0  0  0  0  0  0  0  0  0
    4.1472    2.7978   -0.6991 H   0  0  0  0  0  0  0  0  0  0  0  0
    5.8539    3.0315   -0.8398 H   0  0  0  0  0  0  0  0  0  0  0  0
    4.6948    3.7669   -2.0205 H   0  0  0  0  0  0  0  0  0  0  0  0
    5.7219   -0.4431   -1.7658 H   0  0  0  0  0  0  0  0  0  0  0  0
    6.7314    0.8616   -0.7737 H   0  0  0  0  0  0  0  0  0  0  0  0
    5.2715    0.6256   -0.3928 H   0  0  0  0  0  0  0  0  0  0  0  0
    3.2279    2.2013   -7.4887 H   0  0  0  0  0  0  0  0  0  0  0  0
    1.4141    3.6560   -2.9402 H   0  0  0  0  0  0  0  0  0  0  0  0
    1.8142    3.4915   -3.0685 H   0  0  0  0  0  0  0  0  0  0  0  0
   -1.1691    3.0084   -1.3049 H   0  0  0  0  0  0  0  0  0  0  0  0
   -0.7936    1.6633   -0.1862 H   0  0  0  0  0  0  0  0  0  0  0  0
    0.2972    3.2187   -0.5075 H   0  0  0  0  0  0  0  0  0  0  0  0
    0.9814    0.1593   -0.8712 H   0  0  0  0  0  0  0  0  0  0  0  0
    2.3969    0.7033    0.8656 H   0  0  0  0  0  0  0  0  0  0  0  0
    1.8818    2.4355    0.7112 H   0  0  0  0  0  0  0  0  0  0  0  0
   -0.6849   -1.7997   -4.1447 H   0  0  0  0  0  0  0  0  0  0  0  0
   -0.0706   -0.9500   -5.6159 H   0  0  0  0  0  0  0  0  0  0  0  0
    0.9873   -2.0901   -4.8374 H   0  0  0  0  0  0  0  0  0  0  0  0
    0.1160    2.8387   -5.3348 H   0  0  0  0  0  0  0  0  0  0  0  0
    3.5222    2.5260   -3.5271 H   0  0  0  0  0  0  0  0  0  0  0  0
    3.2147    2.1374   -2.8939 H   0  0  0  0  0  0  0  0  0  0  0  0
    5.0814    0.5864   -4.3185 H   0  0  0  0  0  0  0  0  0  0  0  0
    3.4323    1.0609   -1.1702 H   0  0  0  0  0  0  0  0  0  0  0  0
  1  2  1  0  0  0  0
  1 30  1  0  0  0  0
  1 31  1  0  0  0  0
  1 32  1  0  0  0  0
  2  3  2  0  0  0  0
  2  4  1  0  0  0  0
  5  6  1  0  0  0  0
  5 17  1  0  0  0  0
  5 33  1  1  0  0  0
  5  4  1  0  0  0  0
  6  7  1  0  0  0  0
  6 34  1  6  0  0  0
  6 29  1  0  0  0  0
  7  8  1  0  0  0  0
  7 12  1  0  0  0  0
  7 35  1  1  0  0  0
  8  9  1  0  0  0  0
  8 16  1  0  0  0  0
  8 28  1  6  0  0  0
  9 10  1  0  0  0  0
  9 15  1  0  0  0  0
  9 36  1  6  0  0  0
 10 11  1  0  0  0  0
 10 37  1  0  0  0  0
 10 38  1  0  0  0  0
 11 12  1  0  0  0  0
 11 39  1  0  0  0  0
 11 40  1  0  0  0  0
 12 13  1  0  0  0  0
 12 14  1  0  0  0  0
 13 41  1  0  0  0  0
 13 42  1  0  0  0  0
 13 43  1  0  0  0  0
 14 44  1  0  0  0  0
 14 45  1  0  0  0  0
 14 46  1  0  0  0  0
 15 47  1  0  0  0  0
 16 17  1  0  0  0  0
 16 21  1  0  0  0  0
 16 27  1  1  0  0  0
 17 18  1  0  0  0  0
 17 26  1  6  0  0  0
 18 19  1  0  0  0  0
 19 20  1  0  0  0  0
 19 23  1  0  0  0  0
 19 24  1  1  0  0  0
 20 21  1  0  0  0  0
 20 48  1  0  0  0  0
 20 49  1  0  0  0  0
 21 22  2  0  0  0  0
 23 50  1  0  0  0  0
 23 51  1  0  0  0  0
 23 52  1  0  0  0  0
 24 25  2  0  0  0  0
 24 53  1  0  0  0  0
 25 54  1  0  0  0  0
 25 55  1  0  0  0  0
 26 56  1  0  0  0  0
 26 57  1  0  0  0  0
 26 58  1  0  0  0  0
 27 59  1  0  0  0  0
 28 60  1  0  0  0  0
 28 61  1  0  0  0  0
 28 62  1  0  0  0  0
 29 63  1  0  0  0  0
M  END
$$$$

 OpenBabel05152416213D

 68 69  0  0  0  0  0  0  0  0999 V2000
    0.8708    0.4889    0.0849 C   0  0  0  0  0  0  0  0  0  0  0  0
    0.4073    1.8651    0.3167 C   0  0  0  0  0  0  0  0  0  0  0  0
    0.9443    2.7325   -0.8747 C   0  0  0  0  0  0  0  0  0  0  0  0
   -1.1502    1.8466    0.3260 C   0  0  0  0  0  0  0  0  0  0  0  0
    1.0051    2.2987    1.6025 C   0  0  0  0  0  0  0  0  0  0  0  0
    1.6731    1.4106    2.5313 C   0  0  0  0  0  0  0  0  0  0  0  0
    2.2051    1.8907    3.6712 C   0  0  0  0  0  0  0  0  0  0  0  0
    2.0255    3.2196    4.0086 C   0  0  0  0  0  0  0  0  0  0  0  0
    1.4198    4.1118    3.0925 C   0  0  0  0  0  0  0  0  0  0  0  0
    0.9401    3.6454    1.9205 C   0  0  0  0  0  0  0  0  0  0  0  0
    2.2431    3.6210    5.3775 C   0  0  0  0  0  0  0  0  0  0  0  0
    1.1517    3.0587    6.1731 N   0  0  0  0  0  0  0  0  0  0  0  0
   -0.1070    3.7289    5.8953 C   0  0  0  0  0  0  0  0  0  0  0  0
   -1.0725    2.9472    4.9291 C   0  0  0  0  0  0  0  0  0  0  0  0
   -1.2053    1.5099    5.2590 N   0  0  0  0  0  0  0  0  0  0  0  0
    0.0835    0.8501    5.4339 C   0  0  0  0  0  0  0  0  0  0  0  0
    1.0243    1.6022    6.4404 C   0  0  0  0  0  0  0  0  0  0  0  0
   -2.2139    1.0628    6.2309 C   0  0  0  0  0  0  0  0  0  0  0  0
   -1.9161    1.5901    7.6138 C   0  0  0  0  0  0  0  0  0  0  0  0
   -1.5512    0.7447    8.6535 C   0  0  0  0  0  0  0  0  0  0  0  0
   -1.2495    1.3018    9.9021 C   0  0  0  0  0  0  0  0  0  0  0  0
   -1.2332    2.6971   10.0783 C   0  0  0  0  0  0  0  0  0  0  0  0
   -1.6006    3.5293    9.0413 C   0  0  0  0  0  0  0  0  0  0  0  0
   -2.0040    2.9652    7.8632 C   0  0  0  0  0  0  0  0  0  0  0  0
   -3.5887    1.4586    5.7748 C   0  0  0  0  0  0  0  0  0  0  0  0
   -4.4350    2.2183    6.6080 C   0  0  0  0  0  0  0  0  0  0  0  0
   -5.6646    2.6128    6.2209 C   0  0  0  0  0  0  0  0  0  0  0  0
   -6.1467    2.2261    4.9910 C   0  0  0  0  0  0  0  0  0  0  0  0
   -5.3518    1.4509    4.1260 C   0  0  0  0  0  0  0  0  0  0  0  0
   -4.0566    1.0756    4.5083 C   0  0  0  0  0  0  0  0  0  0  0  0
   -7.7661    2.7177    4.5952 Cl  0  0  0  0  0  0  0  0  0  0  0  0
    2.3545   -2.6330    0.4333 Cl  0  0  0  0  0  0  0  0  0  0  0  0
    0.2838   -1.8215   -1.8302 Cl  0  0  0  0  0  0  0  0  0  0  0  0
    0.5715    0.3734   -0.9276 H   0  0  0  0  0  0  0  0  0  0  0  0
    0.3839   -0.2301    0.7896 H   0  0  0  0  0  0  0  0  0  0  0  0
    1.9818    0.4660    0.1891 H   0  0  0  0  0  0  0  0  0  0  0  0
    0.5751    2.3531   -1.8511 H   0  0  0  0  0  0  0  0  0  0  0  0
    0.6098    3.7855   -0.8411 H   0  0  0  0  0  0  0  0  0  0  0  0
    2.0565    2.6765   -0.9035 H   0  0  0  0  0  0  0  0  0  0  0  0
   -1.5332    1.1193    1.0822 H   0  0  0  0  0  0  0  0  0  0  0  0
   -1.5738    2.8427    0.5467 H   0  0  0  0  0  0  0  0  0  0  0  0
   -1.5496    1.5109   -0.6595 H   0  0  0  0  0  0  0  0  0  0  0  0
    1.7258    0.3267    2.4212 H   0  0  0  0  0  0  0  0  0  0  0  0
    2.6272    1.1753    4.3915 H   0  0  0  0  0  0  0  0  0  0  0  0
    1.2367    5.1427    3.3394 H   0  0  0  0  0  0  0  0  0  0  0  0
    0.4500    4.3284    1.2359 H   0  0  0  0  0  0  0  0  0  0  0  0
    3.2176    3.2938    5.7742 H   0  0  0  0  0  0  0  0  0  0  0  0
    2.1638    4.7290    5.4617 H   0  0  0  0  0  0  0  0  0  0  0  0
   -0.3256    3.9137    6.8867 H   0  0  0  0  0  0  0  0  0  0  0  0
   -0.0845    4.8132    5.6789 H   0  0  0  0  0  0  0  0  0  0  0  0
   -0.6995    3.0220    3.8929 H   0  0  0  0  0  0  0  0  0  0  0  0
   -2.0703    3.4262    4.8396 H   0  0  0  0  0  0  0  0  0  0  0  0
    0.4026    0.7567    4.4318 H   0  0  0  0  0  0  0  0  0  0  0  0
    0.0117   -0.2345    5.6512 H   0  0  0  0  0  0  0  0  0  0  0  0
    2.0218    1.1328    6.5418 H   0  0  0  0  0  0  0  0  0  0  0  0
    0.6078    1.4673    7.4552 H   0  0  0  0  0  0  0  0  0  0  0  0
   -2.1832   -0.0518    6.2229 H   0  0  0  0  0  0  0  0  0  0  0  0
   -1.4913   -0.3239    8.4842 H   0  0  0  0  0  0  0  0  0  0  0  0
   -1.0011    0.6559   10.7212 H   0  0  0  0  0  0  0  0  0  0  0  0
   -0.9473    3.1503   11.0085 H   0  0  0  0  0  0  0  0  0  0  0  0
   -1.5750    4.6122    9.1082 H   0  0  0  0  0  0  0  0  0  0  0  0
   -2.3351    3.6497    7.0853 H   0  0  0  0  0  0  0  0  0  0  0  0
   -4.2168    2.5482    7.5967 H   0  0  0  0  0  0  0  0  0  0  0  0
   -6.2240    3.2115    6.9251 H   0  0  0  0  0  0  0  0  0  0  0  0
   -5.7366    1.1412    3.1696 H   0  0  0  0  0  0  0  0  0  0  0  0
   -3.4321    0.4880    3.8352 H   0  0  0  0  0  0  0  0  0  0  0  0
    2.9654   -1.4078    0.3380 H   0  0  0  0  0  0  0  0  0  0  0  0
    1.5412   -1.2002   -1.7260 H   0  0  0  0  0  0  0  0  0  0  0  0
  1  2  1  0  0  0  0
  1 34  1  0  0  0  0
  1 35  1  0  0  0  0
  1 36  1  0  0  0  0
  2  3  1  0  0  0  0
  2  4  1  0  0  0  0
  2  5  1  0  0  0  0
  3 37  1  0  0  0  0
  3 38  1  0  0  0  0
  3 39  1  0  0  0  0
  4 40  1  0  0  0  0
  4 41  1  0  0  0  0
  4 42  1  0  0  0  0
  5  6  2  0  0  0  0
  5 10  1  0  0  0  0
  6  7  1  0  0  0  0
  6 43  1  0  0  0  0
  7  8  2  0  0  0  0
  7 44  1  0  0  0  0
  8  9  1  0  0  0  0
  8 11  1  0  0  0  0
  9 10  2  0  0  0  0
  9 45  1  0  0  0  0
 10 46  1  0  0  0  0
 11 12  1  0  0  0  0
 11 47  1  0  0  0  0
 11 48  1  0  0  0  0
 12 13  1  0  0  0  0
 12 17  1  0  0  0  0
 13 14  1  0  0  0  0
 13 49  1  0  0  0  0
 13 50  1  0  0  0  0
 14 15  1  0  0  0  0
 14 51  1  0  0  0  0
 14 52  1  0  0  0  0
 15 16  1  0  0  0  0
 15 18  1  0  0  0  0
 16 17  1  0  0  0  0
 16 53  1  0  0  0  0
 16 54  1  0  0  0  0
 17 55  1  0  0  0  0
 17 56  1  0  0  0  0
 18 19  1  0  0  0  0
 18 25  1  0  0  0  0
 18 57  1  0  0  0  0
 19 20  2  0  0  0  0
 19 24  1  0  0  0  0
 20 21  1  0  0  0  0
 20 58  1  0  0  0  0
 21 22  2  0  0  0  0
 21 59  1  0  0  0  0
 22 23  1  0  0  0  0
 22 60  1  0  0  0  0
 23 24  2  0  0  0  0
 23 61  1  0  0  0  0
 24 62  1  0  0  0  0
 25 26  2  0  0  0  0
 25 30  1  0  0  0  0
 26 27  1  0  0  0  0
 26 63  1  0  0  0  0
 27 28  2  0  0  0  0
 27 64  1  0  0  0  0
 28 29  1  0  0  0  0
 28 31  1  0  0  0  0
 29 30  2  0  0  0  0
 29 65  1  0  0  0  0
 30 66  1  0  0  0  0
 32 67  1  0  0  0  0
 33 68  1  0  0  0  0
M  END
$$$$

 OpenBabel05152416213D

 39 42  0  0  1  0  0  0  0  0999 V2000
    0.9370    0.0875    0.1804 C   0  0  0  0  0  0  0  0  0  0  0  0
    0.2886    0.2905    1.4676 N   0  0  0  0  0  0  0  0  0  0  0  0
    0.8660   -0.3644    2.6135 C   0  0  0  0  0  0  0  0  0  0  0  0
    2.1490   -0.8211    2.7345 N   0  0  0  0  0  0  0  0  0  0  0  0
    2.5443   -1.4686    3.8963 C   0  0  0  0  0  0  0  0  0  0  0  0
    1.6478   -1.6788    4.9268 N   0  0  0  0  0  0  0  0  0  0  0  0
    0.3803   -1.2261    4.7580 C   0  0  0  0  0  0  0  0  0  0  0  0
    0.0319   -0.5896    3.6457 C   0  0  0  0  0  0  0  0  0  0  0  0
   -1.2401   -0.2423    3.7001 C   0  0  0  0  0  0  0  0  0  0  0  0
   -1.7163   -0.6898    4.9200 C   0  0  0  0  0  0  0  0  0  0  0  0
   -0.6998   -1.3055    5.5792 N   0  0  0  0  0  0  0  0  0  0  0  0
   -0.7914   -1.8617    6.9204 C   0  0  1  0  0  0  0  0  0  0  0  0
   -0.4178   -3.3402    6.9696 C   0  0  1  0  0  0  0  0  0  0  0  0
    0.1160   -3.4683    8.3848 C   0  0  1  0  0  0  0  0  0  0  0  0
    0.7437   -2.0749    8.5916 C   0  0  2  0  0  0  0  0  0  0  0  0
    0.0967   -1.1541    7.7433 O   0  0  0  0  0  0  0  0  0  0  0  0
    2.2507   -2.0382    8.2989 C   0  0  0  0  0  0  0  0  0  0  0  0
    2.9649   -2.4278    9.4400 O   0  0  0  0  0  0  0  0  0  0  0  0
   -0.9071   -3.6998    9.3255 O   0  0  0  0  0  0  0  0  0  0  0  0
   -1.4832   -4.2106    6.6611 O   0  0  0  0  0  0  0  0  0  0  0  0
   -1.8251    0.4596    2.5742 C   0  0  0  0  0  0  0  0  0  0  0  0
   -1.0637    0.6799    1.5160 N   0  0  0  0  0  0  0  0  0  0  0  0
   -3.1993    0.8116    2.6521 N   0  0  0  0  0  0  0  0  0  0  0  0
    0.5971    0.8214   -0.5788 H   0  0  0  0  0  0  0  0  0  0  0  0
    0.6829   -0.9345   -0.1738 H   0  0  0  0  0  0  0  0  0  0  0  0
    2.0462    0.1326    0.2601 H   0  0  0  0  0  0  0  0  0  0  0  0
    3.5609   -1.8226    3.9994 H   0  0  0  0  0  0  0  0  0  0  0  0
   -2.7202   -0.5706    5.3006 H   0  0  0  0  0  0  0  0  0  0  0  0
   -1.8145   -1.7076    7.3337 H   0  0  0  0  0  0  0  0  0  0  0  0
    0.4209   -3.5217    6.2671 H   0  0  0  0  0  0  0  0  0  0  0  0
    0.8416   -4.3054    8.4844 H   0  0  0  0  0  0  0  0  0  0  0  0
    0.5892   -1.7274    9.6352 H   0  0  0  0  0  0  0  0  0  0  0  0
    2.5123   -2.6974    7.4442 H   0  0  0  0  0  0  0  0  0  0  0  0
    2.5701   -1.0084    8.0155 H   0  0  0  0  0  0  0  0  0  0  0  0
    2.8605   -1.6799   10.0929 H   0  0  0  0  0  0  0  0  0  0  0  0
   -1.5862   -2.9840    9.2549 H   0  0  0  0  0  0  0  0  0  0  0  0
   -2.2406   -4.0043    7.2734 H   0  0  0  0  0  0  0  0  0  0  0  0
   -3.7317    0.5463    3.4990 H   0  0  0  0  0  0  0  0  0  0  0  0
   -3.7139    1.2822    1.8989 H   0  0  0  0  0  0  0  0  0  0  0  0
  1  2  1  0  0  0  0
  1 24  1  0  0  0  0
  1 25  1  0  0  0  0
  1 26  1  0  0  0  0
  2  3  1  0  0  0  0
  2 22  1  0  0  0  0
  3  4  2  0  0  0  0
  3  8  1  0  0  0  0
  4  5  1  0  0  0  0
  5  6  2  0  0  0  0
  5 27  1  0  0  0  0
  6  7  1  0  0  0  0
  7  8  2  0  0  0  0
  7 11  1  0  0  0  0
  8  9  1  0  0  0  0
  9 10  2  0  0  0  0
  9 21  1  0  0  0  0
 10 11  1  0  0  0  0
 10 28  1  0  0  0  0
 11 12  1  0  0  0  0
 12 13  1  0  0  0  0
 12 16  1  0  0  0  0
 12 29  1  1  0  0  0
 13 14  1  0  0  0  0
 13 20  1  0  0  0  0
 13 30  1  6  0  0  0
 14 15  1  0  0  0  0
 14 19  1  0  0  0  0
 14 31  1  1  0  0  0
 15 16  1  0  0  0  0
 15 32  1  1  0  0  0
 15 17  1  0  0  0  0
 17 18  1  0  0  0  0
 17 33  1  0  0  0  0
 17 34  1  0  0  0  0
 18 35  1  0  0  0  0
 19 36  1  0  0  0  0
 20 37  1  0  0  0  0
 21 22  2  0  0  0  0
 21 23  1  0  0  0  0
 23 38  1  0  0  0  0
 23 39  1  0  0  0  0
M  END
$$$$

 OpenBabel05152416213D

 86 89  0  0  0  0  0  0  0  0999 V2000
   -2.3822    1.3212    0.0880 C   0  0  0  0  0  0  0  0  0  0  0  0
   -1.2736    0.3137   -0.0070 C   0  0  0  0  0  0  0  0  0  0  0  0
   -1.3960   -1.0429    0.0892 C   0  0  0  0  0  0  0  0  0  0  0  0
   -0.0888   -1.9088   -0.1010 C   0  0  0  0  0  0  0  0  0  0  0  0
    1.2214   -1.1216   -0.0975 C   0  0  0  0  0  0  0  0  0  0  0  0
    1.2069    0.2609   -0.0781 C   0  0  0  0  0  0  0  0  0  0  0  0
   -0.0208    0.9280   -0.2002 N   0  0  0  0  0  0  0  0  0  0  0  0
    2.3778    1.2459    0.0664 C   0  0  0  0  0  0  0  0  0  0  0  0
    2.4928   -1.9036   -0.1399 C   0  0  0  0  0  0  0  0  0  0  0  0
    3.4701   -1.2158   -0.3768 O   0  0  0  0  0  0  0  0  0  0  0  0
    2.5760   -3.2921    0.2184 O   0  0  0  0  0  0  0  0  0  0  0  0
    3.6518   -3.9977    0.8708 C   0  0  0  0  0  0  0  0  0  0  0  0
    4.7491   -3.7928   -0.5417 C   0  0  0  0  0  0  0  0  0  0  0  0
    3.8676   -3.2899    2.9059 C   0  0  0  0  0  0  0  0  0  0  0  0
    3.4613   -5.5273    0.7032 C   0  0  0  0  0  0  0  0  0  0  0  0
    2.8803   -6.0627    1.9381 N   0  0  0  0  0  0  0  0  0  0  0  0
    2.4721   -7.3880    1.8475 C   0  0  0  0  0  0  0  0  0  0  0  0
    3.5574   -5.9467    3.2385 C   0  0  0  0  0  0  0  0  0  0  0  0
    4.9945   -5.9124    3.4176 C   0  0  0  0  0  0  0  0  0  0  0  0
    5.9613   -5.2964    2.2823 C   0  0  0  0  0  0  0  0  0  0  0  0
    6.2390   -3.5403    1.8627 C   0  0  0  0  0  0  0  0  0  0  0  0
    7.4091   -3.0178    2.3106 C   0  0  0  0  0  0  0  0  0  0  0  0
    7.4856   -1.7343    2.8033 C   0  0  0  0  0  0  0  0  0  0  0  0
    6.5458   -0.7869    2.5199 C   0  0  0  0  0  0  0  0  0  0  0  0
    5.6057   -1.0599    1.7816 C   0  0  0  0  0  0  0  0  0  0  0  0
    5.3412   -2.2123    1.4342 C   0  0  0  0  0  0  0  0  0  0  0  0
    7.0976   -6.1874    2.7440 C   0  0  0  0  0  0  0  0  0  0  0  0
    7.0885   -7.6236    2.6740 C   0  0  0  0  0  0  0  0  0  0  0  0
    8.1994   -8.3189    3.1678 C   0  0  0  0  0  0  0  0  0  0  0  0
    9.3343   -7.5938    3.5682 C   0  0  0  0  0  0  0  0  0  0  0  0
    9.2700   -6.2308    3.6890 C   0  0  0  0  0  0  0  0  0  0  0  0
    8.1127   -5.6239    3.4317 C   0  0  0  0  0  0  0  0  0  0  0  0
   -0.0578   -3.0646    0.8860 C   0  0  0  0  0  0  0  0  0  0  0  0
    0.7617   -3.1139    2.0181 C   0  0  0  0  0  0  0  0  0  0  0  0
    0.6484   -4.2425    2.8532 C   0  0  0  0  0  0  0  0  0  0  0  0
   -0.2591   -5.2360    2.6168 C   0  0  0  0  0  0  0  0  0  0  0  0
   -1.0798   -5.1636    1.5822 C   0  0  0  0  0  0  0  0  0  0  0  0
   -0.9156   -4.1560    0.6749 C   0  0  0  0  0  0  0  0  0  0  0  0
    1.3197   -4.3806    4.0447 N   0  3  0  0  0  0  0  0  0  0  0  0
    1.7430   -3.4170    4.5824 O   0  0  0  0  0  0  0  0  0  0  0  0
    1.2724   -5.5318    4.6940 O   0  5  0  0  0  0  0  0  0  0  0  0
   -2.7817   -1.6627    0.3720 C   0  0  0  0  0  0  0  0  0  0  0  0
   -2.9551   -2.8462    0.4615 O   0  0  0  0  0  0  0  0  0  0  0  0
   -3.8943   -0.9543    0.5878 O   0  0  0  0  0  0  0  0  0  0  0  0
   -5.0947   -1.5635    0.8593 C   0  0  0  0  0  0  0  0  0  0  0  0
   -2.1729    1.9596    0.9657 H   0  0  0  0  0  0  0  0  0  0  0  0
   -2.4180    1.8906   -0.8567 H   0  0  0  0  0  0  0  0  0  0  0  0
   -3.3973    1.0218    0.2131 H   0  0  0  0  0  0  0  0  0  0  0  0
   -0.0712   -2.3830   -1.1010 H   0  0  0  0  0  0  0  0  0  0  0  0
   -0.0008    1.9440   -0.3945 H   0  0  0  0  0  0  0  0  0  0  0  0
    2.4445    1.8629   -0.8505 H   0  0  0  0  0  0  0  0  0  0  0  0
    2.1682    1.9163    0.9386 H   0  0  0  0  0  0  0  0  0  0  0  0
    3.3880    0.8946    0.2920 H   0  0  0  0  0  0  0  0  0  0  0  0
    5.0139   -2.7324   -0.8770 H   0  0  0  0  0  0  0  0  0  0  0  0
    5.8023   -4.2078   -0.5327 H   0  0  0  0  0  0  0  0  0  0  0  0
    4.3960   -4.0706   -1.5975 H   0  0  0  0  0  0  0  0  0  0  0  0
    3.7743   -3.3107    4.0754 H   0  0  0  0  0  0  0  0  0  0  0  0
    4.8403   -3.5242    3.5599 H   0  0  0  0  0  0  0  0  0  0  0  0
    3.7831   -2.1905    3.2124 H   0  0  0  0  0  0  0  0  0  0  0  0
    2.9255   -5.7725   -0.2545 H   0  0  0  0  0  0  0  0  0  0  0  0
    4.3258   -6.1036    0.3674 H   0  0  0  0  0  0  0  0  0  0  0  0
    3.3851   -7.9756    2.0385 H   0  0  0  0  0  0  0  0  0  0  0  0
    1.6987   -7.4914    2.6336 H   0  0  0  0  0  0  0  0  0  0  0  0
    2.0364   -7.5447    0.8607 H   0  0  0  0  0  0  0  0  0  0  0  0
    3.1535   -5.1614    3.1265 H   0  0  0  0  0  0  0  0  0  0  0  0
    3.3295   -5.4510    4.2027 H   0  0  0  0  0  0  0  0  0  0  0  0
    5.3160   -5.5489    4.4553 H   0  0  0  0  0  0  0  0  0  0  0  0
    4.9207   -7.0176    3.6344 H   0  0  0  0  0  0  0  0  0  0  0  0
    5.8212   -5.8940    1.4378 H   0  0  0  0  0  0  0  0  0  0  0  0
    8.2782   -3.5212    2.4834 H   0  0  0  0  0  0  0  0  0  0  0  0
    8.2482   -1.4609    3.4572 H   0  0  0  0  0  0  0  0  0  0  0  0
    6.4761    0.1863    2.8470 H   0  0  0  0  0  0  0  0  0  0  0  0
    4.7263   -0.3520    1.6871 H   0  0  0  0  0  0  0  0  0  0  0  0
    4.3555   -2.1968    1.1956 H   0  0  0  0  0  0  0  0  0  0  0  0
    6.2109   -8.1773    2.3083 H   0  0  0  0  0  0  0  0  0  0  0  0
    8.2000   -9.3918    3.2245 H   0  0  0  0  0  0  0  0  0  0  0  0
   10.2450   -8.0447    3.8780 H   0  0  0  0  0  0  0  0  0  0  0  0
   10.0567   -5.5823    4.0385 H   0  0  0  0  0  0  0  0  0  0  0  0
    8.0196   -4.6908    3.8583 H   0  0  0  0  0  0  0  0  0  0  0  0
    1.4760   -2.3137    2.2205 H   0  0  0  0  0  0  0  0  0  0  0  0
   -0.3715   -6.0731    3.2752 H   0  0  0  0  0  0  0  0  0  0  0  0
   -1.8380   -5.9134    1.5267 H   0  0  0  0  0  0  0  0  0  0  0  0
   -1.5341   -4.2400   -0.1752 H   0  0  0  0  0  0  0  0  0  0  0  0
   -5.3376   -2.2646    0.0259 H   0  0  0  0  0  0  0  0  0  0  0  0
   -4.9951   -2.1464    1.8042 H   0  0  0  0  0  0  0  0  0  0  0  0
   -5.8660   -0.7881    0.9508 H   0  0  0  0  0  0  0  0  0  0  0  0
  1  2  1  0  0  0  0
  1 46  1  0  0  0  0
  1 47  1  0  0  0  0
  1 48  1  0  0  0  0
  2  3  2  0  0  0  0
  2  7  1  0  0  0  0
  3  4  1  0  0  0  0
  3 42  1  0  0  0  0
  4  5  1  0  0  0  0
  4 33  1  0  0  0  0
  4 49  1  0  0  0  0
  5  6  2  0  0  0  0
  5  9  1  0  0  0  0
  6  7  1  0  0  0  0
  6  8  1  0  0  0  0
  7 50  1  0  0  0  0
  8 51  1  0  0  0  0
  8 52  1  0  0  0  0
  8 53  1  0  0  0  0
  9 10  2  0  0  0  0
  9 11  1  0  0  0  0
 11 12  1  0  0  0  0
 12 13  1  0  0  0  0
 12 14  1  0  0  0  0
 12 15  1  0  0  0  0
 13 54  1  0  0  0  0
 13 55  1  0  0  0  0
 13 56  1  0  0  0  0
 14 57  1  0  0  0  0
 14 58  1  0  0  0  0
 14 59  1  0  0  0  0
 15 16  1  0  0  0  0
 15 60  1  0  0  0  0
 15 61  1  0  0  0  0
 16 17  1  0  0  0  0
 16 18  1  0  0  0  0
 17 62  1  0  0  0  0
 17 63  1  0  0  0  0
 17 64  1  0  0  0  0
 18 19  1  0  0  0  0
 18 65  1  0  0  0  0
 18 66  1  0  0  0  0
 19 20  1  0  0  0  0
 19 67  1  0  0  0  0
 19 68  1  0  0  0  0
 20 21  1  0  0  0  0
 20 27  1  0  0  0  0
 20 69  1  0  0  0  0
 21 22  2  0  0  0  0
 21 26  1  0  0  0  0
 22 23  1  0  0  0  0
 22 70  1  0  0  0  0
 23 24  2  0  0  0  0
 23 71  1  0  0  0  0
 24 25  1  0  0  0  0
 24 72  1  0  0  0  0
 25 26  2  0  0  0  0
 25 73  1  0  0  0  0
 26 74  1  0  0  0  0
 27 28  2  0  0  0  0
 27 32  1  0  0  0  0
 28 29  1  0  0  0  0
 28 75  1  0  0  0  0
 29 30  2  0  0  0  0
 29 76  1  0  0  0  0
 30 31  1  0  0  0  0
 30 77  1  0  0  0  0
 31 32  2  0  0  0  0
 31 78  1  0  0  0  0
 32 79  1  0  0  0  0
 33 34  2  0  0  0  0
 33 38  1  0  0  0  0
 34 35  1  0  0  0  0
 34 80  1  0  0  0  0
 35 36  2  0  0  0  0
 35 39  1  0  0  0  0
 36 37  1  0  0  0  0
 36 81  1  0  0  0  0
 37 38  2  0  0  0  0
 37 82  1  0  0  0  0
 38 83  1  0  0  0  0
 39 40  2  0  0  0  0
 39 41  1  0  0  0  0
 42 43  2  0  0  0  0
 42 44  1  0  0  0  0
 44 45  1  0  0  0  0
 45 84  1  0  0  0  0
 45 85  1  0  0  0  0
 45 86  1  0  0  0  0
M  CHG  2  39   1  41  -1
M  END
$$$$

 OpenBabel05152416213D

 44 48  0  0  1  0  0  0  0  0999 V2000
    0.5346    0.0270    0.5925 C   0  0  0  0  0  0  0  0  0  0  0  0
    0.3321    1.5289    0.8741 C   0  0  0  0  0  0  0  0  0  0  0  0
    0.8626    2.6524   -0.1720 C   0  0  1  0  0  0  0  0  0  0  0  0
    2.4324    2.8229   -0.4699 C   0  0  0  0  0  0  0  0  0  0  0  0
    2.9428    1.4927   -0.3972 C   0  0  0  0  0  0  0  0  0  0  0  0
    2.1634    0.6799   -1.6580 C   0  0  0  0  0  0  0  0  0  0  0  0
    0.9611    1.3502   -2.2993 N   0  0  0  0  0  0  0  0  0  0  0  0
    0.2261    2.4168   -1.5555 C   0  0  2  0  0  0  0  0  0  0  0  0
    0.2963    3.7218   -2.2896 C   0  0  0  0  0  0  0  0  0  0  0  0
    0.2042    3.7843   -3.6466 C   0  0  0  0  0  0  0  0  0  0  0  0
    0.0023    2.5145   -4.4082 C   0  0  0  0  0  0  0  0  0  0  0  0
    0.9608    1.4218   -3.8104 C   0  0  0  0  0  0  0  0  0  0  0  0
    0.3826    5.1239   -3.9603 C   0  0  0  0  0  0  0  0  0  0  0  0
    0.3282    5.8106   -5.1644 C   0  0  0  0  0  0  0  0  0  0  0  0
    0.5150    7.2068   -5.1321 C   0  0  0  0  0  0  0  0  0  0  0  0
    0.7872    7.8753   -3.9153 C   0  0  0  0  0  0  0  0  0  0  0  0
    0.8619    7.1609   -2.7167 C   0  0  0  0  0  0  0  0  0  0  0  0
    0.6370    5.7898   -2.7621 C   0  0  0  0  0  0  0  0  0  0  0  0
    0.5737    4.9172   -1.7587 N   0  0  0  0  0  0  0  0  0  0  0  0
    0.7725    5.1086   -0.3920 C   0  0  0  0  0  0  0  0  0  0  0  0
    1.2778    6.1105    0.0520 O   0  0  0  0  0  0  0  0  0  0  0  0
    0.4292    3.9565    0.4860 C   0  0  0  0  0  0  0  0  0  0  0  0
    0.0419   -0.1960   -0.3754 H   0  0  0  0  0  0  0  0  0  0  0  0
    0.1234   -0.7029    1.3098 H   0  0  0  0  0  0  0  0  0  0  0  0
    1.6041   -0.2371    0.6638 H   0  0  0  0  0  0  0  0  0  0  0  0
   -0.7715    1.6370    0.9694 H   0  0  0  0  0  0  0  0  0  0  0  0
    0.7711    1.7195    1.8751 H   0  0  0  0  0  0  0  0  0  0  0  0
    2.7869    2.8673   -1.5448 H   0  0  0  0  0  0  0  0  0  0  0  0
    2.7825    3.7640   -0.9649 H   0  0  0  0  0  0  0  0  0  0  0  0
    4.0401    1.5221   -0.2225 H   0  0  0  0  0  0  0  0  0  0  0  0
    2.7438    1.4892    0.7160 H   0  0  0  0  0  0  0  0  0  0  0  0
    2.1908   -0.3777   -1.9996 H   0  0  0  0  0  0  0  0  0  0  0  0
    1.9251   -0.3635   -1.3674 H   0  0  0  0  0  0  0  0  0  0  0  0
   -0.8502    2.1298   -1.5071 H   0  0  0  0  0  0  0  0  0  0  0  0
    0.1396    2.6544   -5.5053 H   0  0  0  0  0  0  0  0  0  0  0  0
   -1.0411    2.1826   -4.2273 H   0  0  0  0  0  0  0  0  0  0  0  0
    1.9896    1.6325   -4.1744 H   0  0  0  0  0  0  0  0  0  0  0  0
    0.6576    0.4356   -4.2308 H   0  0  0  0  0  0  0  0  0  0  0  0
    0.1104    5.2943   -6.0883 H   0  0  0  0  0  0  0  0  0  0  0  0
    0.4406    7.7775   -6.0442 H   0  0  0  0  0  0  0  0  0  0  0  0
    0.9235    8.9473   -3.9021 H   0  0  0  0  0  0  0  0  0  0  0  0
    1.0577    7.6757   -1.7817 H   0  0  0  0  0  0  0  0  0  0  0  0
    0.9207    4.0495    1.4837 H   0  0  0  0  0  0  0  0  0  0  0  0
   -0.6721    3.9346    0.6131 H   0  0  0  0  0  0  0  0  0  0  0  0
  1  2  1  0  0  0  0
  1 23  1  0  0  0  0
  1 24  1  0  0  0  0
  1 25  1  0  0  0  0
  2 26  1  0  0  0  0
  2 27  1  0  0  0  0
  3  2  1  1  0  0  0
  3  4  1  0  0  0  0
  3  8  1  0  0  0  0
  3 22  1  0  0  0  0
  4  5  1  0  0  0  0
  4 28  1  0  0  0  0
  4 29  1  0  0  0  0
  5  6  1  0  0  0  0
  5 30  1  0  0  0  0
  5 31  1  0  0  0  0
  6  7  1  0  0  0  0
  6 32  1  0  0  0  0
  6 33  1  0  0  0  0
  7  8  1  0  0  0  0
  7 12  1  0  0  0  0
  8  9  1  0  0  0  0
  8 34  1  1  0  0  0
  9 10  2  0  0  0  0
  9 19  1  0  0  0  0
 10 11  1  0  0  0  0
 10 13  1  0  0  0  0
 11 12  1  0  0  0  0
 11 35  1  0  0  0  0
 11 36  1  0  0  0  0
 12 37  1  0  0  0  0
 12 38  1  0  0  0  0
 13 14  2  0  0  0  0
 13 18  1  0  0  0  0
 14 15  1  0  0  0  0
 14 39  1  0  0  0  0
 15 16  2  0  0  0  0
 15 40  1  0  0  0  0
 16 17  1  0  0  0  0
 16 41  1  0  0  0  0
 17 18  2  0  0  0  0
 17 42  1  0  0  0  0
 18 19  1  0  0  0  0
 19 20  1  0  0  0  0
 20 21  2  0  0  0  0
 20 22  1  0  0  0  0
 22 43  1  0  0  0  0
 22 44  1  0  0  0  0
M  END
$$$$

 OpenBabel05152416213D

 22 23  0  0  0  0  0  0  0  0999 V2000
   -1.2141   -1.4483    0.0002 C   0  0  0  0  0  0  0  0  0  0  0  0
    0.0175   -2.1035   -0.0056 C   0  0  0  0  0  0  0  0  0  0  0  0
    1.2446   -1.3862   -0.0115 C   0  0  0  0  0  0  0  0  0  0  0  0
    1.1543    0.0526   -0.0108 C   0  0  0  0  0  0  0  0  0  0  0  0
   -0.0928    0.6737   -0.0027 C   0  0  0  0  0  0  0  0  0  0  0  0
   -1.2666   -0.0612    0.0015 C   0  0  0  0  0  0  0  0  0  0  0  0
   -2.8043    0.7765    0.0025 Cl  0  0  0  0  0  0  0  0  0  0  0  0
    2.4588    1.2419   -0.0407 Cl  0  0  0  0  0  0  0  0  0  0  0  0
    2.5264   -2.1986   -0.0321 C   0  0  0  0  0  0  0  0  0  0  0  0
    3.7567   -1.6461    0.0666 C   0  0  0  0  0  0  0  0  0  0  0  0
    4.9840   -2.3710    0.0460 N   0  0  0  0  0  0  0  0  0  0  0  0
    5.3326   -3.4428   -0.6823 C   0  0  0  0  0  0  0  0  0  0  0  0
    6.6022   -3.7988   -0.4204 N   0  0  0  0  0  0  0  0  0  0  0  0
    6.9977   -2.8861    0.4926 C   0  0  0  0  0  0  0  0  0  0  0  0
    6.0306   -1.9978    0.7639 N   0  0  0  0  0  0  0  0  0  0  0  0
    2.4108   -3.9752   -0.0612 Cl  0  0  0  0  0  0  0  0  0  0  0  0
   -2.1315   -2.0228    0.0017 H   0  0  0  0  0  0  0  0  0  0  0  0
   -0.0194   -3.1843   -0.0070 H   0  0  0  0  0  0  0  0  0  0  0  0
   -0.1452    1.7546   -0.0047 H   0  0  0  0  0  0  0  0  0  0  0  0
    3.8990   -0.6126    0.2172 H   0  0  0  0  0  0  0  0  0  0  0  0
    4.7020   -3.9278   -1.4177 H   0  0  0  0  0  0  0  0  0  0  0  0
    7.9730   -2.8640    0.9545 H   0  0  0  0  0  0  0  0  0  0  0  0
  1  2  2  0  0  0  0
  1  6  1  0  0  0  0
  1 17  1  0  0  0  0
  2  3  1  0  0  0  0
  2 18  1  0  0  0  0
  3  4  2  0  0  0  0
  3  9  1  0  0  0  0
  4  5  1  0  0  0  0
  4  8  1  0  0  0  0
  5  6  2  0  0  0  0
  5 19  1  0  0  0  0
  6  7  1  0  0  0  0
  9 10  2  0  0  0  0
  9 16  1  0  0  0  0
 10 11  1  0  0  0  0
 10 20  1  0  0  0  0
 11 12  1  0  0  0  0
 11 15  1  0  0  0  0
 12 13  2  0  0  0  0
 12 21  1  0  0  0  0
 13 14  1  0  0  0  0
 14 15  2  0  0  0  0
 14 22  1  0  0  0  0
M  END
$$$$

 OpenBabel05152416213D

 30 32  0  0  0  0  0  0  0  0999 V2000
   -0.9448   -0.8983   -0.4121 C   0  0  0  0  0  0  0  0  0  0  0  0
   -1.4149    0.4281    0.1911 C   0  0  0  0  0  0  0  0  0  0  0  0
   -0.0750    1.6375   -0.0975 S   0  0  0  0  0  0  0  0  0  0  0  0
    1.2261    0.4136    0.1319 C   0  0  0  0  0  0  0  0  0  0  0  0
    2.5169    0.8034    0.2760 C   0  0  0  0  0  0  0  0  0  0  0  0
    2.8464    2.2869    0.2431 C   0  0  0  0  0  0  0  0  0  0  0  0
    3.1198    3.5175    0.2158 N   0  0  0  0  0  0  0  0  0  0  0  0
    3.6039   -0.1227    0.4724 N   0  0  0  0  0  0  0  0  0  0  0  0
    3.8172   -1.3129   -0.1434 C   0  0  0  0  0  0  0  0  0  0  0  0
    4.9878   -1.8320    0.3549 C   0  0  0  0  0  0  0  0  0  0  0  0
    5.5036   -0.9926    1.2747 N   0  0  0  0  0  0  0  0  0  0  0  0
    4.6358    0.0389    1.3066 C   0  0  0  0  0  0  0  0  0  0  0  0
    0.6999   -1.3025    0.2414 S   0  0  0  0  0  0  0  0  0  0  0  0
   -2.7621    0.8509   -0.4063 C   0  0  0  0  0  0  0  0  0  0  0  0
   -2.8680    1.9556   -1.2858 C   0  0  0  0  0  0  0  0  0  0  0  0
   -4.0977    2.3313   -1.8274 C   0  0  0  0  0  0  0  0  0  0  0  0
   -5.2508    1.6232   -1.5046 C   0  0  0  0  0  0  0  0  0  0  0  0
   -5.1795    0.5368   -0.6353 C   0  0  0  0  0  0  0  0  0  0  0  0
   -3.9519    0.1449   -0.0846 C   0  0  0  0  0  0  0  0  0  0  0  0
   -3.9717   -1.2154    1.0327 Cl  0  0  0  0  0  0  0  0  0  0  0  0
   -0.8751   -0.8263   -1.5193 H   0  0  0  0  0  0  0  0  0  0  0  0
   -1.6377   -1.7228   -0.1539 H   0  0  0  0  0  0  0  0  0  0  0  0
   -1.5220    0.3480    1.2951 H   0  0  0  0  0  0  0  0  0  0  0  0
    3.1955   -1.7409   -0.9063 H   0  0  0  0  0  0  0  0  0  0  0  0
    5.4477   -2.7666    0.0569 H   0  0  0  0  0  0  0  0  0  0  0  0
    4.7492    0.8910    1.9687 H   0  0  0  0  0  0  0  0  0  0  0  0
   -2.0105    2.5405   -1.5782 H   0  0  0  0  0  0  0  0  0  0  0  0
   -4.1544    3.1770   -2.5015 H   0  0  0  0  0  0  0  0  0  0  0  0
   -6.2016    1.9195   -1.9270 H   0  0  0  0  0  0  0  0  0  0  0  0
   -6.0862   -0.0004   -0.3854 H   0  0  0  0  0  0  0  0  0  0  0  0
  1  2  1  0  0  0  0
  1 13  1  0  0  0  0
  1 21  1  0  0  0  0
  1 22  1  0  0  0  0
  2  3  1  0  0  0  0
  2 14  1  0  0  0  0
  2 23  1  0  0  0  0
  3  4  1  0  0  0  0
  4  5  2  0  0  0  0
  4 13  1  0  0  0  0
  5  6  1  0  0  0  0
  5  8  1  0  0  0  0
  6  7  3  0  0  0  0
  8  9  1  0  0  0  0
  8 12  1  0  0  0  0
  9 10  2  0  0  0  0
  9 24  1  0  0  0  0
 10 11  1  0  0  0  0
 10 25  1  0  0  0  0
 11 12  2  0  0  0  0
 12 26  1  0  0  0  0
 14 15  2  0  0  0  0
 14 19  1  0  0  0  0
 15 16  1  0  0  0  0
 15 27  1  0  0  0  0
 16 17  2  0  0  0  0
 16 28  1  0  0  0  0
 17 18  1  0  0  0  0
 17 29  1  0  0  0  0
 18 19  2  0  0  0  0
 18 30  1  0  0  0  0
 19 20  1  0  0  0  0
M  END
$$$$

 OpenBabel05152416213D

 54 57  0  0  0  0  0  0  0  0999 V2000
    0.5820    0.3127    0.6990 C   0  0  0  0  0  0  0  0  0  0  0  0
    0.1241    2.0316   -0.5460 C   0  0  0  0  0  0  0  0  0  0  0  0
    0.9674    2.4831   -2.0562 C   0  0  0  0  0  0  0  0  0  0  0  0
    1.1233    3.6725   -2.5129 C   0  0  0  0  0  0  0  0  0  0  0  0
    1.5809    3.4253   -3.7996 N   0  0  0  0  0  0  0  0  0  0  0  0
    1.9241    2.1784   -4.1398 N   0  0  0  0  0  0  0  0  0  0  0  0
    1.7012    1.4405   -3.1345 C   0  0  0  0  0  0  0  0  0  0  0  0
    1.9594   -0.4399   -2.9962 C   0  0  0  0  0  0  0  0  0  0  0  0
    2.3166   -1.0133   -3.9783 O   0  0  0  0  0  0  0  0  0  0  0  0
    1.7610   -1.4217   -1.8432 N   0  0  0  0  0  0  0  0  0  0  0  0
    1.5194   -1.1616   -0.5001 N   0  0  0  0  0  0  0  0  0  0  0  0
    2.1256    0.7102   -0.7258 C   0  0  0  0  0  0  0  0  0  0  0  0
    1.2473    2.2257    1.4462 C   0  0  0  0  0  0  0  0  0  0  0  0
   -0.7428    1.6766    1.8443 C   0  0  0  0  0  0  0  0  0  0  0  0
   -1.2560   -0.1780    1.7650 C   0  0  0  0  0  0  0  0  0  0  0  0
   -0.5426   -1.4880    0.3979 C   0  0  0  0  0  0  0  0  0  0  0  0
    1.8027    4.2782   -4.8362 C   0  0  0  0  0  0  0  0  0  0  0  0
    2.7926    5.2266   -4.7438 C   0  0  0  0  0  0  0  0  0  0  0  0
    3.0805    6.0038   -5.8585 C   0  0  0  0  0  0  0  0  0  0  0  0
    2.3651    5.8084   -7.0461 C   0  0  0  0  0  0  0  0  0  0  0  0
    1.3870    4.8198   -7.1258 C   0  0  0  0  0  0  0  0  0  0  0  0
    1.1177    4.0331   -6.0257 C   0  0  0  0  0  0  0  0  0  0  0  0
    2.6791    6.7987   -8.4447 Cl  0  0  0  0  0  0  0  0  0  0  0  0
    3.7046    5.4016   -3.2623 Cl  0  0  0  0  0  0  0  0  0  0  0  0
    0.6614    4.8905   -1.6957 C   0  0  0  0  0  0  0  0  0  0  0  0
    1.2286    5.3244   -0.4372 C   0  0  0  0  0  0  0  0  0  0  0  0
    0.8902    6.5866    0.0963 C   0  0  0  0  0  0  0  0  0  0  0  0
   -0.0425    7.3777   -0.5624 C   0  0  0  0  0  0  0  0  0  0  0  0
   -0.6878    6.8911   -1.6929 C   0  0  0  0  0  0  0  0  0  0  0  0
   -0.3536    5.6502   -2.2273 C   0  0  0  0  0  0  0  0  0  0  0  0
   -0.4419    9.1276    0.0624 Br  0  0  0  0  0  0  0  0  0  0  0  0
   -0.0842   -0.3126   -0.9965 H   0  0  0  0  0  0  0  0  0  0  0  0
    1.1239   -0.4373    1.5819 H   0  0  0  0  0  0  0  0  0  0  0  0
    2.0113    0.0372    1.1765 H   0  0  0  0  0  0  0  0  0  0  0  0
   -0.7201    1.4359   -0.6155 H   0  0  0  0  0  0  0  0  0  0  0  0
    1.0366    2.6610   -0.5137 H   0  0  0  0  0  0  0  0  0  0  0  0
    1.8981   -2.4341   -1.8215 H   0  0  0  0  0  0  0  0  0  0  0  0
    1.1259    0.6100   -1.4931 H   0  0  0  0  0  0  0  0  0  0  0  0
    2.8994    1.2385   -0.8558 H   0  0  0  0  0  0  0  0  0  0  0  0
    0.9031    3.3511    1.3895 H   0  0  0  0  0  0  0  0  0  0  0  0
    1.8814    1.9359    2.2008 H   0  0  0  0  0  0  0  0  0  0  0  0
   -0.9710    2.1411    2.7138 H   0  0  0  0  0  0  0  0  0  0  0  0
   -1.5482    2.0799    1.1042 H   0  0  0  0  0  0  0  0  0  0  0  0
   -0.6097   -0.4403    2.6027 H   0  0  0  0  0  0  0  0  0  0  0  0
   -2.2562   -0.2317    1.8028 H   0  0  0  0  0  0  0  0  0  0  0  0
   -0.8016   -2.3331    0.4692 H   0  0  0  0  0  0  0  0  0  0  0  0
   -1.5139   -0.6983   -0.1766 H   0  0  0  0  0  0  0  0  0  0  0  0
    3.8501    6.7577   -5.8043 H   0  0  0  0  0  0  0  0  0  0  0  0
    0.8370    4.6688   -8.0384 H   0  0  0  0  0  0  0  0  0  0  0  0
    0.3693    3.2472   -6.0889 H   0  0  0  0  0  0  0  0  0  0  0  0
    1.9828    4.7688    0.1035 H   0  0  0  0  0  0  0  0  0  0  0  0
    1.3773    6.9864    0.9835 H   0  0  0  0  0  0  0  0  0  0  0  0
   -1.4208    7.4993   -2.1910 H   0  0  0  0  0  0  0  0  0  0  0  0
   -0.8594    5.2660   -3.0879 H   0  0  0  0  0  0  0  0  0  0  0  0
  1  2  1  0  0  0  0
  1 32  1  0  0  0  0
  1 33  1  0  0  0  0
  1 34  1  0  0  0  0
  2  3  1  0  0  0  0
  2 35  1  0  0  0  0
  2 36  1  0  0  0  0
  3  4  2  0  0  0  0
  3  7  1  0  0  0  0
  4  5  1  0  0  0  0
  4 25  1  0  0  0  0
  5  6  1  0  0  0  0
  5 17  1  0  0  0  0
  6  7  2  0  0  0  0
  7  8  1  0  0  0  0
  8  9  2  0  0  0  0
  8 10  1  0  0  0  0
 10 11  1  0  0  0  0
 10 37  1  0  0  0  0
 11 12  1  0  0  0  0
 11 16  1  0  0  0  0
 12 13  1  0  0  0  0
 12 38  1  0  0  0  0
 12 39  1  0  0  0  0
 13 14  1  0  0  0  0
 13 40  1  0  0  0  0
 13 41  1  0  0  0  0
 14 15  1  0  0  0  0
 14 42  1  0  0  0  0
 14 43  1  0  0  0  0
 15 16  1  0  0  0  0
 15 44  1  0  0  0  0
 15 45  1  0  0  0  0
 16 46  1  0  0  0  0
 16 47  1  0  0  0  0
 17 18  2  0  0  0  0
 17 22  1  0  0  0  0
 18 19  1  0  0  0  0
 18 24  1  0  0  0  0
 19 20  2  0  0  0  0
 19 48  1  0  0  0  0
 20 21  1  0  0  0  0
 20 23  1  0  0  0  0
 21 22  2  0  0  0  0
 21 49  1  0  0  0  0
 22 50  1  0  0  0  0
 25 26  2  0  0  0  0
 25 30  1  0  0  0  0
 26 27  1  0  0  0  0
 26 51  1  0  0  0  0
 27 28  2  0  0  0  0
 27 52  1  0  0  0  0
 28 29  1  0  0  0  0
 28 31  1  0  0  0  0
 29 30  2  0  0  0  0
 29 53  1  0  0  0  0
 30 54  1  0  0  0  0
M  END
$$$$

 OpenBabel05152416213D

 53 57  0  0  1  0  0  0  0  0999 V2000
    1.5029    0.1039    0.2353 C   0  0  0  0  0  0  0  0  0  0  0  0
    0.4358   -0.8495    1.2591 C   0  0  2  0  0  0  0  0  0  0  0  0
   -1.2361   -1.0508    1.4997 C   0  0  0  0  0  0  0  0  0  0  0  0
   -1.7936    0.0964    0.9494 C   0  0  0  0  0  0  0  0  0  0  0  0
   -1.0782   -0.0690   -0.5035 C   0  0  0  0  0  0  0  0  0  0  0  0
   -0.7852    1.0023   -1.0021 O   0  0  0  0  0  0  0  0  0  0  0  0
   -0.1319   -1.5640   -0.7291 C   0  0  0  0  0  0  0  0  0  0  0  0
    0.3792   -2.0155    0.5265 C   0  0  0  0  0  0  0  0  0  0  0  0
    0.8888   -3.2449    1.3998 C   0  0  0  0  0  0  0  0  0  0  0  0
    0.8637   -3.0693    2.7947 C   0  0  0  0  0  0  0  0  0  0  0  0
    0.6245   -1.6871    3.4362 C   0  0  2  0  0  0  0  0  0  0  0  0
    1.1004   -0.6388    2.4785 C   0  0  2  0  0  0  0  0  0  0  0  0
    0.8769    0.8592    2.8920 C   0  0  0  0  0  0  0  0  0  0  0  0
    1.6003    1.1435    4.1030 C   0  0  0  0  0  0  0  0  0  0  0  0
    1.2242    0.1141    5.1604 C   0  0  1  0  0  0  0  0  0  0  0  0
    1.3125   -1.3874    4.7053 C   0  0  1  0  0  0  0  0  0  0  0  0
    2.7447   -1.6434    4.6878 C   0  0  0  0  0  0  0  0  0  0  0  0
    2.9844   -1.2251    6.1300 C   0  0  0  0  0  0  0  0  0  0  0  0
    2.3862    0.2656    6.2381 C   0  0  1  0  0  0  0  0  0  0  0  0
    3.8674    0.8383    6.1589 C   0  0  0  0  0  0  0  0  0  0  0  0
    4.0360    1.5895    7.4386 C   0  0  0  0  0  0  0  0  0  0  0  0
    2.7440    2.1531    7.5171 C   0  0  0  0  0  0  0  0  0  0  0  0
    2.5087    3.3275    7.7755 O   0  0  0  0  0  0  0  0  0  0  0  0
    1.8466    1.2023    7.1573 O   0  0  0  0  0  0  0  0  0  0  0  0
   -0.3153    0.3335    5.5563 C   0  0  0  0  0  0  0  0  0  0  0  0
    1.5106    1.1871    0.3355 H   0  0  0  0  0  0  0  0  0  0  0  0
    1.3835    0.1429   -0.8751 H   0  0  0  0  0  0  0  0  0  0  0  0
    2.5683   -0.2542    0.1979 H   0  0  0  0  0  0  0  0  0  0  0  0
   -1.8511   -1.7839    0.8460 H   0  0  0  0  0  0  0  0  0  0  0  0
   -1.6640   -1.7057    2.2832 H   0  0  0  0  0  0  0  0  0  0  0  0
   -2.9007    0.1137    1.0449 H   0  0  0  0  0  0  0  0  0  0  0  0
   -1.5751    0.7213    1.8414 H   0  0  0  0  0  0  0  0  0  0  0  0
    0.2052   -2.0983   -1.5964 H   0  0  0  0  0  0  0  0  0  0  0  0
    0.9745   -4.2877    1.1026 H   0  0  0  0  0  0  0  0  0  0  0  0
    0.9237   -3.9030    3.5111 H   0  0  0  0  0  0  0  0  0  0  0  0
   -0.4207   -1.6119    3.7552 H   0  0  0  0  0  0  0  0  0  0  0  0
    2.1833   -0.8297    2.2829 H   0  0  0  0  0  0  0  0  0  0  0  0
   -0.1379    1.1511    3.0890 H   0  0  0  0  0  0  0  0  0  0  0  0
    1.2362    1.6280    2.1990 H   0  0  0  0  0  0  0  0  0  0  0  0
    1.3713    2.1812    4.4373 H   0  0  0  0  0  0  0  0  0  0  0  0
    2.6508    1.0864    3.7883 H   0  0  0  0  0  0  0  0  0  0  0  0
    0.8487   -2.0778    5.4605 H   0  0  0  0  0  0  0  0  0  0  0  0
    2.9894   -2.6852    4.3873 H   0  0  0  0  0  0  0  0  0  0  0  0
    3.3138   -0.9938    3.9691 H   0  0  0  0  0  0  0  0  0  0  0  0
    4.0660   -1.5274    6.0527 H   0  0  0  0  0  0  0  0  0  0  0  0
    2.5125   -1.8378    6.8805 H   0  0  0  0  0  0  0  0  0  0  0  0
    4.7754    0.2291    6.3972 H   0  0  0  0  0  0  0  0  0  0  0  0
    4.0714    1.3666    5.2355 H   0  0  0  0  0  0  0  0  0  0  0  0
    4.9580    2.1946    7.4251 H   0  0  0  0  0  0  0  0  0  0  0  0
    4.0154    0.8814    8.3202 H   0  0  0  0  0  0  0  0  0  0  0  0
   -1.0268    0.1672    4.7048 H   0  0  0  0  0  0  0  0  0  0  0  0
   -0.6882   -0.3853    6.3138 H   0  0  0  0  0  0  0  0  0  0  0  0
   -0.5601    1.3711    5.8556 H   0  0  0  0  0  0  0  0  0  0  0  0
  1 26  1  0  0  0  0
  1 27  1  0  0  0  0
  1 28  1  0  0  0  0
  2  1  1  1  0  0  0
  2  3  1  0  0  0  0
  2  8  1  0  0  0  0
  2 12  1  0  0  0  0
  3  4  1  0  0  0  0
  3 29  1  0  0  0  0
  3 30  1  0  0  0  0
  4  5  1  0  0  0  0
  4 31  1  0  0  0  0
  4 32  1  0  0  0  0
  5  6  2  0  0  0  0
  5  7  1  0  0  0  0
  7  8  2  0  0  0  0
  7 33  1  0  0  0  0
  8  9  1  0  0  0  0
  9 10  2  0  0  0  0
  9 34  1  0  0  0  0
 10 11  1  0  0  0  0
 10 35  1  0  0  0  0
 11 12  1  0  0  0  0
 11 16  1  0  0  0  0
 11 36  1  1  0  0  0
 12 13  1  0  0  0  0
 12 37  1  6  0  0  0
 13 14  1  0  0  0  0
 13 38  1  0  0  0  0
 13 39  1  0  0  0  0
 14 15  1  0  0  0  0
 14 40  1  0  0  0  0
 14 41  1  0  0  0  0
 15 16  1  0  0  0  0
 15 19  1  0  0  0  0
 15 25  1  1  0  0  0
 16 17  1  0  0  0  0
 16 42  1  6  0  0  0
 17 18  1  0  0  0  0
 17 43  1  0  0  0  0
 17 44  1  0  0  0  0
 18 19  1  0  0  0  0
 18 45  1  0  0  0  0
 18 46  1  0  0  0  0
 19 20  1  0  0  0  0
 19 24  1  1  0  0  0
 20 21  1  0  0  0  0
 20 47  1  0  0  0  0
 20 48  1  0  0  0  0
 21 22  1  0  0  0  0
 21 49  1  0  0  0  0
 21 50  1  0  0  0  0
 22 23  2  0  0  0  0
 22 24  1  0  0  0  0
 25 51  1  0  0  0  0
 25 52  1  0  0  0  0
 25 53  1  0  0  0  0
M  END
$$$$

 OpenBabel05152416213D

 37 38  0  0  0  0  0  0  0  0999 V2000
    1.3638   -0.1800    0.2672 C   0  0  0  0  0  0  0  0  0  0  0  0
    0.6631    0.6782   -0.7364 C   0  0  0  0  0  0  0  0  0  0  0  0
    0.9930   -0.1593   -2.0856 C   0  0  0  0  0  0  0  0  0  0  0  0
   -0.7788    0.6753   -0.0436 C   0  0  0  0  0  0  0  0  0  0  0  0
    1.1001    2.1863   -0.8997 C   0  0  0  0  0  0  0  0  0  0  0  0
    1.7992    2.6308    0.0060 O   0  0  0  0  0  0  0  0  0  0  0  0
    0.6451    3.2358   -2.0380 C   0  0  0  0  0  0  0  0  0  0  0  0
    1.3308    3.1325   -3.3894 N   0  0  0  0  0  0  0  0  0  0  0  0
    1.5382    4.1511   -4.2351 C   0  0  0  0  0  0  0  0  0  0  0  0
    2.0047    3.6144   -5.4399 C   0  0  0  0  0  0  0  0  0  0  0  0
    2.1550    2.3156   -5.3111 N   0  0  0  0  0  0  0  0  0  0  0  0
    1.7890    2.0623   -4.0478 C   0  0  0  0  0  0  0  0  0  0  0  0
   -0.7535    3.4487   -2.2972 O   0  0  0  0  0  0  0  0  0  0  0  0
   -1.7320    2.5734   -2.7947 C   0  0  0  0  0  0  0  0  0  0  0  0
   -1.5963    1.2623   -2.6235 C   0  0  0  0  0  0  0  0  0  0  0  0
   -2.4206    0.2086   -2.8569 C   0  0  0  0  0  0  0  0  0  0  0  0
   -3.5726    0.5020   -3.5007 C   0  0  0  0  0  0  0  0  0  0  0  0
   -3.8196    1.8607   -3.8465 C   0  0  0  0  0  0  0  0  0  0  0  0
   -2.9047    2.9085   -3.4529 C   0  0  0  0  0  0  0  0  0  0  0  0
   -4.6097   -0.8607   -3.8667 Cl  0  0  0  0  0  0  0  0  0  0  0  0
    0.9198   -1.2066    0.1177 H   0  0  0  0  0  0  0  0  0  0  0  0
    1.1496    0.1545    1.2983 H   0  0  0  0  0  0  0  0  0  0  0  0
    2.4415   -0.1942    0.0566 H   0  0  0  0  0  0  0  0  0  0  0  0
    0.6865   -1.2060   -2.1609 H   0  0  0  0  0  0  0  0  0  0  0  0
    0.5093    0.0528   -3.0663 H   0  0  0  0  0  0  0  0  0  0  0  0
    2.0999   -0.1229   -2.2190 H   0  0  0  0  0  0  0  0  0  0  0  0
   -1.5328    1.4757    0.1600 H   0  0  0  0  0  0  0  0  0  0  0  0
   -1.2497    1.6498   -0.3088 H   0  0  0  0  0  0  0  0  0  0  0  0
   -1.3362   -0.2372   -0.3309 H   0  0  0  0  0  0  0  0  0  0  0  0
    1.0246    4.2073   -1.6163 H   0  0  0  0  0  0  0  0  0  0  0  0
    1.3780    5.1985   -4.0423 H   0  0  0  0  0  0  0  0  0  0  0  0
    2.2552    4.0860   -6.3681 H   0  0  0  0  0  0  0  0  0  0  0  0
    1.9216    1.1221   -3.7640 H   0  0  0  0  0  0  0  0  0  0  0  0
   -0.8080    1.1363   -2.2492 H   0  0  0  0  0  0  0  0  0  0  0  0
   -2.1347   -0.8021   -2.5333 H   0  0  0  0  0  0  0  0  0  0  0  0
   -4.7016    2.0857   -4.3958 H   0  0  0  0  0  0  0  0  0  0  0  0
   -3.0678    3.9453   -3.6660 H   0  0  0  0  0  0  0  0  0  0  0  0
  1  2  1  0  0  0  0
  1 21  1  0  0  0  0
  1 22  1  0  0  0  0
  1 23  1  0  0  0  0
  2  3  1  0  0  0  0
  2  4  1  0  0  0  0
  2  5  1  0  0  0  0
  3 24  1  0  0  0  0
  3 25  1  0  0  0  0
  3 26  1  0  0  0  0
  4 27  1  0  0  0  0
  4 28  1  0  0  0  0
  4 29  1  0  0  0  0
  5  6  2  0  0  0  0
  5  7  1  0  0  0  0
  7  8  1  0  0  0  0
  7 13  1  0  0  0  0
  7 30  1  0  0  0  0
  8  9  1  0  0  0  0
  8 12  1  0  0  0  0
  9 10  2  0  0  0  0
  9 31  1  0  0  0  0
 10 11  1  0  0  0  0
 10 32  1  0  0  0  0
 11 12  2  0  0  0  0
 12 33  1  0  0  0  0
 13 14  1  0  0  0  0
 14 15  2  0  0  0  0
 14 19  1  0  0  0  0
 15 16  1  0  0  0  0
 15 34  1  0  0  0  0
 16 17  2  0  0  0  0
 16 35  1  0  0  0  0
 17 18  1  0  0  0  0
 17 20  1  0  0  0  0
 18 19  2  0  0  0  0
 18 36  1  0  0  0  0
 19 37  1  0  0  0  0
M  END
$$$$

 OpenBabel05152416213D

 43 44  0  0  0  0  0  0  0  0999 V2000
   -2.3705    1.3759    0.0827 C   0  0  0  0  0  0  0  0  0  0  0  0
   -1.2471    0.3631   -0.0081 C   0  0  0  0  0  0  0  0  0  0  0  0
   -1.3400   -0.9690    0.2344 C   0  0  0  0  0  0  0  0  0  0  0  0
   -0.0145   -1.8379    0.0605 C   0  0  0  0  0  0  0  0  0  0  0  0
    1.3359   -1.0437    0.0733 C   0  0  0  0  0  0  0  0  0  0  0  0
    1.2602    0.3147   -0.0403 C   0  0  0  0  0  0  0  0  0  0  0  0
    0.0122    0.9543   -0.2536 N   0  0  0  0  0  0  0  0  0  0  0  0
    2.4126    1.2915    0.0413 C   0  0  0  0  0  0  0  0  0  0  0  0
    2.6909   -1.7778    0.1927 C   0  0  0  0  0  0  0  0  0  0  0  0
    3.7163   -1.1671    0.4357 O   0  0  0  0  0  0  0  0  0  0  0  0
    2.7698   -3.1378    0.2076 O   0  0  0  0  0  0  0  0  0  0  0  0
    3.8907   -3.8059    0.6820 C   0  0  0  0  0  0  0  0  0  0  0  0
   -0.0222   -3.0673    0.9631 C   0  0  0  0  0  0  0  0  0  0  0  0
    0.9124   -3.1594    2.0251 C   0  0  0  0  0  0  0  0  0  0  0  0
    1.0004   -4.2778    2.8205 C   0  0  0  0  0  0  0  0  0  0  0  0
    0.0476   -5.2691    2.7059 C   0  0  0  0  0  0  0  0  0  0  0  0
   -0.9483   -5.1811    1.7367 C   0  0  0  0  0  0  0  0  0  0  0  0
   -0.9650   -4.1410    0.7917 C   0  0  0  0  0  0  0  0  0  0  0  0
   -1.9767   -4.1630   -0.2419 N   0  3  0  0  0  0  0  0  0  0  0  0
   -2.9319   -4.8826   -0.1142 O   0  0  0  0  0  0  0  0  0  0  0  0
   -1.9574   -3.3547   -1.2736 O   0  5  0  0  0  0  0  0  0  0  0  0
   -2.6753   -1.5340    0.7617 C   0  0  0  0  0  0  0  0  0  0  0  0
   -2.6710   -2.4475    1.5643 O   0  0  0  0  0  0  0  0  0  0  0  0
   -3.8855   -0.9950    0.4712 O   0  0  0  0  0  0  0  0  0  0  0  0
   -5.0933   -1.5783    0.8096 C   0  0  0  0  0  0  0  0  0  0  0  0
   -2.1370    2.0471    0.9318 H   0  0  0  0  0  0  0  0  0  0  0  0
   -2.4077    1.9390   -0.8702 H   0  0  0  0  0  0  0  0  0  0  0  0
   -3.3972    1.0690    0.2519 H   0  0  0  0  0  0  0  0  0  0  0  0
    0.0281   -2.2535   -0.9708 H   0  0  0  0  0  0  0  0  0  0  0  0
    0.0256    1.9693   -0.4382 H   0  0  0  0  0  0  0  0  0  0  0  0
    2.4510    1.8879   -0.8873 H   0  0  0  0  0  0  0  0  0  0  0  0
    2.1977    1.9562    0.9068 H   0  0  0  0  0  0  0  0  0  0  0  0
    3.4255    0.9380    0.2168 H   0  0  0  0  0  0  0  0  0  0  0  0
    4.7507   -3.6297    0.0056 H   0  0  0  0  0  0  0  0  0  0  0  0
    4.1580   -3.4412    1.7045 H   0  0  0  0  0  0  0  0  0  0  0  0
    3.6849   -4.8920    0.7660 H   0  0  0  0  0  0  0  0  0  0  0  0
    1.6310   -2.3857    2.2457 H   0  0  0  0  0  0  0  0  0  0  0  0
    1.8030   -4.3514    3.5428 H   0  0  0  0  0  0  0  0  0  0  0  0
    0.0823   -6.1065    3.3803 H   0  0  0  0  0  0  0  0  0  0  0  0
   -1.7019   -5.9514    1.7058 H   0  0  0  0  0  0  0  0  0  0  0  0
   -5.3462   -2.3314    0.0363 H   0  0  0  0  0  0  0  0  0  0  0  0
   -5.0487   -2.0760    1.8043 H   0  0  0  0  0  0  0  0  0  0  0  0
   -5.8867   -0.8042    0.8596 H   0  0  0  0  0  0  0  0  0  0  0  0
  1  2  1  0  0  0  0
  1 26  1  0  0  0  0
  1 27  1  0  0  0  0
  1 28  1  0  0  0  0
  2  3  2  0  0  0  0
  2  7  1  0  0  0  0
  3  4  1  0  0  0  0
  3 22  1  0  0  0  0
  4  5  1  0  0  0  0
  4 13  1  0  0  0  0
  4 29  1  0  0  0  0
  5  6  2  0  0  0  0
  5  9  1  0  0  0  0
  6  7  1  0  0  0  0
  6  8  1  0  0  0  0
  7 30  1  0  0  0  0
  8 31  1  0  0  0  0
  8 32  1  0  0  0  0
  8 33  1  0  0  0  0
  9 10  2  0  0  0  0
  9 11  1  0  0  0  0
 11 12  1  0  0  0  0
 12 34  1  0  0  0  0
 12 35  1  0  0  0  0
 12 36  1  0  0  0  0
 13 14  2  0  0  0  0
 13 18  1  0  0  0  0
 14 15  1  0  0  0  0
 14 37  1  0  0  0  0
 15 16  2  0  0  0  0
 15 38  1  0  0  0  0
 16 17  1  0  0  0  0
 16 39  1  0  0  0  0
 17 18  2  0  0  0  0
 17 40  1  0  0  0  0
 18 19  1  0  0  0  0
 19 20  2  0  0  0  0
 19 21  1  0  0  0  0
 22 23  2  0  0  0  0
 22 24  1  0  0  0  0
 24 25  1  0  0  0  0
 25 41  1  0  0  0  0
 25 42  1  0  0  0  0
 25 43  1  0  0  0  0
M  CHG  2  19   1  21  -1
M  END
$$$$

 OpenBabel05152416213D

 47 49  0  0  0  0  0  0  0  0999 V2000
    2.3853   -0.5754   -0.2700 C   0  0  0  0  0  0  0  0  0  0  0  0
    0.9313   -0.1331   -0.1852 C   0  0  0  0  0  0  0  0  0  0  0  0
    0.1126   -1.2710   -0.1416 C   0  0  0  0  0  0  0  0  0  0  0  0
   -1.2579   -1.1794   -0.0650 C   0  0  0  0  0  0  0  0  0  0  0  0
   -1.8667    0.0670   -0.0497 C   0  0  0  0  0  0  0  0  0  0  0  0
   -1.0954    1.2396   -0.0722 C   0  0  0  0  0  0  0  0  0  0  0  0
    0.3148    1.1959   -0.1152 C   0  0  0  0  0  0  0  0  0  0  0  0
    0.9835    2.4146   -0.0003 O   0  0  0  0  0  0  0  0  0  0  0  0
    2.7134    2.4168    0.0033 P   0  0  0  0  0  0  0  0  0  0  0  0
    2.7209    2.9493   -1.4543 O   0  0  0  0  0  0  0  0  0  0  0  0
    2.6623    3.9930    0.7726 O   0  0  0  0  0  0  0  0  0  0  0  0
    1.5220    4.5988    1.2144 C   0  0  0  0  0  0  0  0  0  0  0  0
    1.3027    5.9393    0.8283 C   0  0  0  0  0  0  0  0  0  0  0  0
    0.0985    6.5811    1.1076 C   0  0  0  0  0  0  0  0  0  0  0  0
   -0.9328    5.8921    1.7438 C   0  0  0  0  0  0  0  0  0  0  0  0
   -0.7322    4.5850    2.1775 C   0  0  0  0  0  0  0  0  0  0  0  0
    0.4889    3.9351    1.9867 C   0  0  0  0  0  0  0  0  0  0  0  0
    0.6285    2.5563    2.6497 C   0  0  0  0  0  0  0  0  0  0  0  0
    4.4434    2.4190    0.0069 O   0  0  0  0  0  0  0  0  0  0  0  0
    5.1435    2.3970    1.2014 C   0  0  0  0  0  0  0  0  0  0  0  0
    6.2365    3.2714    1.3514 C   0  0  0  0  0  0  0  0  0  0  0  0
    6.9628    3.3265    2.5542 C   0  0  0  0  0  0  0  0  0  0  0  0
    6.6122    2.5181    3.6330 C   0  0  0  0  0  0  0  0  0  0  0  0
    5.5520    1.6418    3.5165 C   0  0  0  0  0  0  0  0  0  0  0  0
    4.8251    1.5547    2.3245 C   0  0  0  0  0  0  0  0  0  0  0  0
    3.7980    0.4886    2.3027 C   0  0  0  0  0  0  0  0  0  0  0  0
    2.5753   -1.2431    0.5977 H   0  0  0  0  0  0  0  0  0  0  0  0
    2.5384   -1.1395   -1.2051 H   0  0  0  0  0  0  0  0  0  0  0  0
    3.2336    0.0950   -0.3155 H   0  0  0  0  0  0  0  0  0  0  0  0
    0.5574   -2.2633   -0.1475 H   0  0  0  0  0  0  0  0  0  0  0  0
   -1.8365   -2.0931   -0.0168 H   0  0  0  0  0  0  0  0  0  0  0  0
   -2.9450    0.1130    0.0039 H   0  0  0  0  0  0  0  0  0  0  0  0
   -1.6084    2.1907   -0.0251 H   0  0  0  0  0  0  0  0  0  0  0  0
    2.0687    6.4793    0.2795 H   0  0  0  0  0  0  0  0  0  0  0  0
   -0.0589    7.6099    0.8062 H   0  0  0  0  0  0  0  0  0  0  0  0
   -1.8834    6.3711    1.9237 H   0  0  0  0  0  0  0  0  0  0  0  0
   -1.5458    4.0815    2.6858 H   0  0  0  0  0  0  0  0  0  0  0  0
    0.8982    1.6731    2.0899 H   0  0  0  0  0  0  0  0  0  0  0  0
    1.4159    2.6001    3.4163 H   0  0  0  0  0  0  0  0  0  0  0  0
   -0.3424    2.2202    3.0674 H   0  0  0  0  0  0  0  0  0  0  0  0
    6.5242    3.9236    0.5385 H   0  0  0  0  0  0  0  0  0  0  0  0
    7.8014    3.9992    2.6606 H   0  0  0  0  0  0  0  0  0  0  0  0
    7.1652    2.5479    4.5631 H   0  0  0  0  0  0  0  0  0  0  0  0
    5.3074    1.0009    4.3583 H   0  0  0  0  0  0  0  0  0  0  0  0
    2.8172    0.8827    2.0661 H   0  0  0  0  0  0  0  0  0  0  0  0
    4.1893   -0.2448    1.5837 H   0  0  0  0  0  0  0  0  0  0  0  0
    3.6653   -0.0475    3.2629 H   0  0  0  0  0  0  0  0  0  0  0  0
  1  2  1  0  0  0  0
  1 27  1  0  0  0  0
  1 28  1  0  0  0  0
  1 29  1  0  0  0  0
  2  3  2  0  0  0  0
  2  7  1  0  0  0  0
  3  4  1  0  0  0  0
  3 30  1  0  0  0  0
  4  5  2  0  0  0  0
  4 31  1  0  0  0  0
  5  6  1  0  0  0  0
  5 32  1  0  0  0  0
  6  7  2  0  0  0  0
  6 33  1  0  0  0  0
  7  8  1  0  0  0  0
  8  9  1  0  0  0  0
  9 10  2  0  0  0  0
  9 11  1  0  0  0  0
  9 19  1  0  0  0  0
 11 12  1  0  0  0  0
 12 13  2  0  0  0  0
 12 17  1  0  0  0  0
 13 14  1  0  0  0  0
 13 34  1  0  0  0  0
 14 15  2  0  0  0  0
 14 35  1  0  0  0  0
 15 16  1  0  0  0  0
 15 36  1  0  0  0  0
 16 17  2  0  0  0  0
 16 37  1  0  0  0  0
 17 18  1  0  0  0  0
 18 38  1  0  0  0  0
 18 39  1  0  0  0  0
 18 40  1  0  0  0  0
 19 20  1  0  0  0  0
 20 21  2  0  0  0  0
 20 25  1  0  0  0  0
 21 22  1  0  0  0  0
 21 41  1  0  0  0  0
 22 23  2  0  0  0  0
 22 42  1  0  0  0  0
 23 24  1  0  0  0  0
 23 43  1  0  0  0  0
 24 25  2  0  0  0  0
 24 44  1  0  0  0  0
 25 26  1  0  0  0  0
 26 45  1  0  0  0  0
 26 46  1  0  0  0  0
 26 47  1  0  0  0  0
M  END
$$$$

 OpenBabel05152416213D

 30 29  0  0  0  0  0  0  0  0999 V2000
    2.5353    0.2058    0.0253 C   0  0  0  0  0  0  0  0  0  0  0  0
    1.7147   -1.0640    0.1970 C   0  0  0  0  0  0  0  0  0  0  0  0
    0.2147   -1.0110    0.0739 C   0  0  0  0  0  0  0  0  0  0  0  0
   -0.3425    0.3150   -0.0816 C   0  0  0  0  0  0  0  0  0  0  0  0
    0.4186    1.5060   -0.1840 C   0  0  0  0  0  0  0  0  0  0  0  0
    1.8875    1.4813   -0.1708 C   0  0  0  0  0  0  0  0  0  0  0  0
    2.6897    2.7305   -0.1283 C   0  0  0  0  0  0  0  0  0  0  0  0
    2.5977    3.6454    0.9496 C   0  0  0  0  0  0  0  0  0  0  0  0
    3.4084    4.7817    1.0068 C   0  0  0  0  0  0  0  0  0  0  0  0
    4.3486    5.0122   -0.0220 C   0  0  0  0  0  0  0  0  0  0  0  0
    4.4701    4.0915   -1.0668 C   0  0  0  0  0  0  0  0  0  0  0  0
    3.6632    2.9740   -1.1186 C   0  0  0  0  0  0  0  0  0  0  0  0
    5.1623    6.1548   -0.0262 N   0  0  0  0  0  0  0  0  0  0  0  0
    3.2279    5.9046    2.3545 Cl  0  0  0  0  0  0  0  0  0  0  0  0
   -2.1361    0.4760   -0.0434 Cl  0  0  0  0  0  0  0  0  0  0  0  0
   -0.5803   -2.1795    0.0728 N   0  0  0  0  0  0  0  0  0  0  0  0
    2.0380   -0.8438   -2.4796 Cl  0  0  0  0  0  0  0  0  0  0  0  0
    1.1630    0.7134    2.9157 Cl  0  0  0  0  0  0  0  0  0  0  0  0
    3.6902    0.3788   -0.0006 H   0  0  0  0  0  0  0  0  0  0  0  0
    2.0372   -2.1541    0.3189 H   0  0  0  0  0  0  0  0  0  0  0  0
   -0.0910    2.4824   -0.2128 H   0  0  0  0  0  0  0  0  0  0  0  0
    1.9083    3.4566    1.7718 H   0  0  0  0  0  0  0  0  0  0  0  0
    5.1940    4.2339   -1.8624 H   0  0  0  0  0  0  0  0  0  0  0  0
    3.7761    2.2853   -1.9333 H   0  0  0  0  0  0  0  0  0  0  0  0
    5.0823    6.8649    0.7113 H   0  0  0  0  0  0  0  0  0  0  0  0
    5.8219    6.2992   -0.8046 H   0  0  0  0  0  0  0  0  0  0  0  0
   -1.6448   -2.1557   -0.0405 H   0  0  0  0  0  0  0  0  0  0  0  0
   -0.2103   -3.1515   -0.0028 H   0  0  0  0  0  0  0  0  0  0  0  0
    3.1081   -1.3469   -1.6042 H   0  0  0  0  0  0  0  0  0  0  0  0
    1.1544    0.4806    1.7408 H   0  0  0  0  0  0  0  0  0  0  0  0
  1  2  2  0  0  0  0
  1  6  1  0  0  0  0
  1 19  1  0  0  0  0
  2  3  1  0  0  0  0
  2 20  1  0  0  0  0
  3  4  2  0  0  0  0
  3 16  1  0  0  0  0
  4  5  1  0  0  0  0
  4 15  1  0  0  0  0
  5  6  2  0  0  0  0
  5 21  1  0  0  0  0
  6  7  1  0  0  0  0
  7  8  2  0  0  0  0
  7 12  1  0  0  0  0
  8  9  1  0  0  0  0
  8 22  1  0  0  0  0
  9 10  2  0  0  0  0
  9 14  1  0  0  0  0
 10 11  1  0  0  0  0
 10 13  1  0  0  0  0
 11 12  2  0  0  0  0
 11 23  1  0  0  0  0
 12 24  1  0  0  0  0
 13 25  1  0  0  0  0
 13 26  1  0  0  0  0
 16 27  1  0  0  0  0
 16 28  1  0  0  0  0
 17 29  1  0  0  0  0
 18 30  1  0  0  0  0
M  END
$$$$

 OpenBabel05152416213D

 45 46  0  0  0  0  0  0  0  0999 V2000
   -1.3975    0.3483   -0.2792 C   0  0  0  0  0  0  0  0  0  0  0  0
   -0.4132    1.4251    0.2027 C   0  0  0  0  0  0  0  0  0  0  0  0
    1.0166    1.0691   -0.2528 C   0  0  0  0  0  0  0  0  0  0  0  0
    1.4445   -0.3357    0.2175 C   0  0  0  0  0  0  0  0  0  0  0  0
    0.4217   -1.3868   -0.2350 C   0  0  0  0  0  0  0  0  0  0  0  0
   -0.9999   -1.0432    0.2722 C   0  0  0  0  0  0  0  0  0  0  0  0
   -1.0749   -1.1240    1.8220 C   0  0  0  0  0  0  0  0  0  0  0  0
   -2.4231   -0.8614    2.3174 N   0  0  0  0  0  0  0  0  0  0  0  0
    1.9863    2.0774    0.2703 C   0  0  0  0  0  0  0  0  0  0  0  0
    2.6223    2.7610   -0.5242 O   0  0  0  0  0  0  0  0  0  0  0  0
    2.2139    2.1666    1.6063 O   0  0  0  0  0  0  0  0  0  0  0  0
    2.9172    3.1577    2.2000 C   0  0  0  0  0  0  0  0  0  0  0  0
    3.7399    2.8475    3.2818 C   0  0  0  0  0  0  0  0  0  0  0  0
    4.5175    3.8396    3.8674 C   0  0  0  0  0  0  0  0  0  0  0  0
    4.4333    5.1731    3.4376 C   0  0  0  0  0  0  0  0  0  0  0  0
    3.6021    5.4847    2.3514 C   0  0  0  0  0  0  0  0  0  0  0  0
    2.8547    4.4834    1.7335 C   0  0  0  0  0  0  0  0  0  0  0  0
    5.2430    6.2487    4.1185 C   0  0  0  0  0  0  0  0  0  0  0  0
    4.8102    6.5612    5.5723 C   0  0  0  0  0  0  0  0  0  0  0  0
    4.9148    5.3988    6.5292 C   0  0  0  0  0  0  0  0  0  0  0  0
    5.7948    5.3836    7.3765 O   0  0  0  0  0  0  0  0  0  0  0  0
    4.0280    4.3817    6.4679 O   0  0  0  0  0  0  0  0  0  0  0  0
   -1.3871    0.3180   -1.3916 H   0  0  0  0  0  0  0  0  0  0  0  0
   -2.4331    0.6174    0.0099 H   0  0  0  0  0  0  0  0  0  0  0  0
   -0.7094    2.4094   -0.2210 H   0  0  0  0  0  0  0  0  0  0  0  0
   -0.4649    1.5227    1.3070 H   0  0  0  0  0  0  0  0  0  0  0  0
    1.0263    1.0857   -1.3650 H   0  0  0  0  0  0  0  0  0  0  0  0
    1.5442   -0.3629    1.3221 H   0  0  0  0  0  0  0  0  0  0  0  0
    2.4452   -0.5830   -0.1990 H   0  0  0  0  0  0  0  0  0  0  0  0
    0.7325   -2.3909    0.1253 H   0  0  0  0  0  0  0  0  0  0  0  0
    0.4150   -1.4153   -1.3479 H   0  0  0  0  0  0  0  0  0  0  0  0
   -1.7028   -1.8010   -0.1393 H   0  0  0  0  0  0  0  0  0  0  0  0
   -0.7693   -2.1436    2.1397 H   0  0  0  0  0  0  0  0  0  0  0  0
   -0.3785   -0.4161    2.3130 H   0  0  0  0  0  0  0  0  0  0  0  0
   -2.3909   -0.9212    3.3604 H   0  0  0  0  0  0  0  0  0  0  0  0
   -2.6889    0.1256    2.1052 H   0  0  0  0  0  0  0  0  0  0  0  0
    3.8068    1.8338    3.6591 H   0  0  0  0  0  0  0  0  0  0  0  0
    5.1912    3.5573    4.6606 H   0  0  0  0  0  0  0  0  0  0  0  0
    3.5296    6.4973    1.9749 H   0  0  0  0  0  0  0  0  0  0  0  0
    2.2205    4.7446    0.8985 H   0  0  0  0  0  0  0  0  0  0  0  0
    6.3142    5.9564    4.0906 H   0  0  0  0  0  0  0  0  0  0  0  0
    5.1466    7.2007    3.5493 H   0  0  0  0  0  0  0  0  0  0  0  0
    5.4866    7.3684    5.9278 H   0  0  0  0  0  0  0  0  0  0  0  0
    3.7717    6.9578    5.5981 H   0  0  0  0  0  0  0  0  0  0  0  0
    4.1621    3.5557    6.9545 H   0  0  0  0  0  0  0  0  0  0  0  0
  1  2  1  0  0  0  0
  1  6  1  0  0  0  0
  1 23  1  0  0  0  0
  1 24  1  0  0  0  0
  2  3  1  0  0  0  0
  2 25  1  0  0  0  0
  2 26  1  0  0  0  0
  3  4  1  0  0  0  0
  3  9  1  0  0  0  0
  3 27  1  0  0  0  0
  4  5  1  0  0  0  0
  4 28  1  0  0  0  0
  4 29  1  0  0  0  0
  5  6  1  0  0  0  0
  5 30  1  0  0  0  0
  5 31  1  0  0  0  0
  6  7  1  0  0  0  0
  6 32  1  0  0  0  0
  7  8  1  0  0  0  0
  7 33  1  0  0  0  0
  7 34  1  0  0  0  0
  8 35  1  0  0  0  0
  8 36  1  0  0  0  0
  9 10  2  0  0  0  0
  9 11  1  0  0  0  0
 11 12  1  0  0  0  0
 12 13  2  0  0  0  0
 12 17  1  0  0  0  0
 13 14  1  0  0  0  0
 13 37  1  0  0  0  0
 14 15  2  0  0  0  0
 14 38  1  0  0  0  0
 15 16  1  0  0  0  0
 15 18  1  0  0  0  0
 16 17  2  0  0  0  0
 16 39  1  0  0  0  0
 17 40  1  0  0  0  0
 18 19  1  0  0  0  0
 18 41  1  0  0  0  0
 18 42  1  0  0  0  0
 19 20  1  0  0  0  0
 19 43  1  0  0  0  0
 19 44  1  0  0  0  0
 20 21  2  0  0  0  0
 20 22  1  0  0  0  0
 22 45  1  0  0  0  0
M  END
$$$$

 OpenBabel05152416213D

 51 54  0  0  1  0  0  0  0  0999 V2000
    0.7162   -0.4020    0.6365 C   0  0  0  0  0  0  0  0  0  0  0  0
    0.0818    0.7980    0.0660 C   0  0  0  0  0  0  0  0  0  0  0  0
    1.0798    1.5795   -1.2516 C   0  0  2  0  0  0  0  0  0  0  0  0
    2.2969    0.6903   -1.9305 C   0  0  0  0  0  0  0  0  0  0  0  0
    1.9327   -0.7870   -2.2239 C   0  0  0  0  0  0  0  0  0  0  0  0
    0.6446   -0.8082   -3.0470 C   0  0  1  0  0  0  0  0  0  0  0  0
   -0.3882    0.2732   -2.5151 C   0  0  2  0  0  0  0  0  0  0  0  0
    0.1946    1.7787   -1.9579 C   0  0  2  0  0  0  0  0  0  0  0  0
    1.4481    2.6641   -0.4465 C   0  0  0  0  0  0  0  0  0  0  0  0
    2.3227    3.6491   -0.9345 C   0  0  0  0  0  0  0  0  0  0  0  0
    1.0292    3.4400   -1.5459 C   0  0  0  0  0  0  0  0  0  0  0  0
    1.1755    4.3826   -2.6103 C   0  0  0  0  0  0  0  0  0  0  0  0
    1.1156    5.4105   -3.4102 C   0  0  0  0  0  0  0  0  0  0  0  0
   -0.2517    4.0842   -1.0718 O   0  0  0  0  0  0  0  0  0  0  0  0
   -1.5081    0.4261   -3.6144 C   0  0  0  0  0  0  0  0  0  0  0  0
   -1.9791   -0.9363   -4.0392 C   0  0  0  0  0  0  0  0  0  0  0  0
   -0.7564   -1.8681   -4.6113 C   0  0  0  0  0  0  0  0  0  0  0  0
   -0.6917   -2.9245   -5.4967 C   0  0  0  0  0  0  0  0  0  0  0  0
   -1.7808   -3.9035   -5.4150 C   0  0  0  0  0  0  0  0  0  0  0  0
   -1.9036   -4.8397   -6.1291 O   0  0  0  0  0  0  0  0  0  0  0  0
   -2.4549   -3.7733   -4.0836 C   0  0  0  0  0  0  0  0  0  0  0  0
   -1.2820   -3.2732   -2.8902 C   0  0  0  0  0  0  0  0  0  0  0  0
   -0.0196   -2.2715   -3.4255 C   0  0  2  0  0  0  0  0  0  0  0  0
    0.3692   -1.2426    0.0178 H   0  0  0  0  0  0  0  0  0  0  0  0
    0.3476   -0.5584    1.6605 H   0  0  0  0  0  0  0  0  0  0  0  0
    1.8165   -0.2245    0.6479 H   0  0  0  0  0  0  0  0  0  0  0  0
   -1.0221    0.7818   -0.0627 H   0  0  0  0  0  0  0  0  0  0  0  0
   -0.0269    1.4798    0.9403 H   0  0  0  0  0  0  0  0  0  0  0  0
    2.6345    1.1886   -2.8770 H   0  0  0  0  0  0  0  0  0  0  0  0
    3.1850    0.6994   -1.2637 H   0  0  0  0  0  0  0  0  0  0  0  0
    2.7733   -1.2903   -2.7564 H   0  0  0  0  0  0  0  0  0  0  0  0
    1.8585   -1.3676   -1.3173 H   0  0  0  0  0  0  0  0  0  0  0  0
    1.0584   -0.3906   -4.0055 H   0  0  0  0  0  0  0  0  0  0  0  0
   -0.8838   -0.3100   -1.7322 H   0  0  0  0  0  0  0  0  0  0  0  0
    0.4494    2.0329   -3.0659 H   0  0  0  0  0  0  0  0  0  0  0  0
    1.0934    3.1236    0.6004 H   0  0  0  0  0  0  0  0  0  0  0  0
    1.9592    2.2952    0.5700 H   0  0  0  0  0  0  0  0  0  0  0  0
    2.5948    4.6675   -0.5754 H   0  0  0  0  0  0  0  0  0  0  0  0
    3.2397    3.0626   -1.2317 H   0  0  0  0  0  0  0  0  0  0  0  0
    1.0665    6.2540   -4.0666 H   0  0  0  0  0  0  0  0  0  0  0  0
   -0.9652    3.9080   -1.7721 H   0  0  0  0  0  0  0  0  0  0  0  0
   -1.2591    0.9157   -4.5740 H   0  0  0  0  0  0  0  0  0  0  0  0
   -2.3731    0.9579   -3.1537 H   0  0  0  0  0  0  0  0  0  0  0  0
   -3.0256   -0.9605   -4.3791 H   0  0  0  0  0  0  0  0  0  0  0  0
   -2.3254   -1.2285   -3.0334 H   0  0  0  0  0  0  0  0  0  0  0  0
    0.2127   -3.5766   -5.5822 H   0  0  0  0  0  0  0  0  0  0  0  0
   -3.3353   -3.1817   -4.5025 H   0  0  0  0  0  0  0  0  0  0  0  0
   -3.1901   -2.9912   -4.4022 H   0  0  0  0  0  0  0  0  0  0  0  0
   -0.9919   -4.1415   -2.2717 H   0  0  0  0  0  0  0  0  0  0  0  0
   -1.6823   -2.7856   -1.9824 H   0  0  0  0  0  0  0  0  0  0  0  0
    0.8642   -2.9474   -3.6196 H   0  0  0  0  0  0  0  0  0  0  0  0
  1  2  1  0  0  0  0
  1 24  1  0  0  0  0
  1 25  1  0  0  0  0
  1 26  1  0  0  0  0
  2 27  1  0  0  0  0
  2 28  1  0  0  0  0
  3  4  1  0  0  0  0
  3  8  1  0  0  0  0
  3 11  1  0  0  0  0
  3  2  1  6  0  0  0
  4  5  1  0  0  0  0
  4 29  1  0  0  0  0
  4 30  1  0  0  0  0
  5  6  1  0  0  0  0
  5 31  1  0  0  0  0
  5 32  1  0  0  0  0
  6  7  1  0  0  0  0
  6 23  1  0  0  0  0
  6 33  1  1  0  0  0
  7  8  1  0  0  0  0
  7 15  1  0  0  0  0
  7 34  1  6  0  0  0
  8  9  1  0  0  0  0
  8 35  1  1  0  0  0
  9 10  1  0  0  0  0
  9 36  1  0  0  0  0
  9 37  1  0  0  0  0
 10 11  1  0  0  0  0
 10 38  1  0  0  0  0
 10 39  1  0  0  0  0
 11 12  1  0  0  0  0
 11 14  1  0  0  0  0
 12 13  3  0  0  0  0
 13 40  1  0  0  0  0
 14 41  1  0  0  0  0
 15 16  1  0  0  0  0
 15 42  1  0  0  0  0
 15 43  1  0  0  0  0
 16 17  1  0  0  0  0
 16 44  1  0  0  0  0
 16 45  1  0  0  0  0
 17 18  2  0  0  0  0
 17 23  1  0  0  0  0
 18 19  1  0  0  0  0
 18 46  1  0  0  0  0
 19 21  1  0  0  0  0
 19 20  2  0  0  0  0
 21 22  1  0  0  0  0
 21 47  1  0  0  0  0
 21 48  1  0  0  0  0
 22 23  1  0  0  0  0
 22 49  1  0  0  0  0
 22 50  1  0  0  0  0
 23 51  1  6  0  0  0
M  END
$$$$

 OpenBabel05152416213D

 49 49  0  0  0  0  0  0  0  0999 V2000
    1.1547   -0.1182    0.0455 C   0  0  0  0  0  0  0  0  0  0  0  0
    0.7151    1.1819   -0.5980 C   0  0  0  0  0  0  0  0  0  0  0  0
    1.1422    1.3289   -2.0450 C   0  0  0  0  0  0  0  0  0  0  0  0
   -0.7438    1.2043   -0.5469 C   0  0  0  0  0  0  0  0  0  0  0  0
   -1.3163    2.1617    0.1470 C   0  0  0  0  0  0  0  0  0  0  0  0
   -2.7379    2.1863    0.2274 C   0  0  0  0  0  0  0  0  0  0  0  0
   -3.2070    2.0829    1.7145 C   0  0  0  0  0  0  0  0  0  0  0  0
   -3.0289    3.3806    2.4515 C   0  0  0  0  0  0  0  0  0  0  0  0
   -3.8050    4.5432    1.7573 C   0  0  0  0  0  0  0  0  0  0  0  0
   -5.3689    4.4944    1.7443 C   0  0  0  0  0  0  0  0  0  0  0  0
   -5.9049    5.3569    2.4017 O   0  0  0  0  0  0  0  0  0  0  0  0
   -6.2044    3.6040    1.0500 N   0  0  0  0  0  0  0  0  0  0  0  0
   -5.8398    2.5428    0.1249 C   0  0  0  0  0  0  0  0  0  0  0  0
   -5.9534    1.0979    0.6935 C   0  0  0  0  0  0  0  0  0  0  0  0
   -6.6119    0.8482    1.9129 C   0  0  0  0  0  0  0  0  0  0  0  0
   -6.6657   -0.4411    2.4857 C   0  0  0  0  0  0  0  0  0  0  0  0
   -5.9831   -1.5184    1.8323 C   0  0  0  0  0  0  0  0  0  0  0  0
   -5.2819   -1.2575    0.6645 C   0  0  0  0  0  0  0  0  0  0  0  0
   -5.2834    0.0087    0.0843 C   0  0  0  0  0  0  0  0  0  0  0  0
   -5.9519   -2.8133    2.2323 O   0  0  0  0  0  0  0  0  0  0  0  0
   -7.3800   -0.5463    3.6393 O   0  0  0  0  0  0  0  0  0  0  0  0
   -7.6874   -1.6943    4.3254 C   0  0  0  0  0  0  0  0  0  0  0  0
    0.7509   -0.9853   -0.5216 H   0  0  0  0  0  0  0  0  0  0  0  0
    0.7593   -0.1659    1.0886 H   0  0  0  0  0  0  0  0  0  0  0  0
    2.2566   -0.1479    0.0739 H   0  0  0  0  0  0  0  0  0  0  0  0
    1.1385    2.0317   -0.0143 H   0  0  0  0  0  0  0  0  0  0  0  0
    0.7417    0.4905   -2.6547 H   0  0  0  0  0  0  0  0  0  0  0  0
    0.7454    2.2877   -2.4542 H   0  0  0  0  0  0  0  0  0  0  0  0
    2.2455    1.3473   -2.0858 H   0  0  0  0  0  0  0  0  0  0  0  0
   -1.3283    0.4336   -1.0614 H   0  0  0  0  0  0  0  0  0  0  0  0
   -0.7647    2.9448    0.6488 H   0  0  0  0  0  0  0  0  0  0  0  0
   -2.9607    3.1078   -0.3423 H   0  0  0  0  0  0  0  0  0  0  0  0
   -3.1663    1.3771   -0.3768 H   0  0  0  0  0  0  0  0  0  0  0  0
   -4.2496    1.9527    1.9190 H   0  0  0  0  0  0  0  0  0  0  0  0
   -2.7767    1.1770    2.1893 H   0  0  0  0  0  0  0  0  0  0  0  0
   -3.3947    3.2642    3.4978 H   0  0  0  0  0  0  0  0  0  0  0  0
   -1.9406    3.5842    2.5058 H   0  0  0  0  0  0  0  0  0  0  0  0
   -3.4955    5.4366    2.3469 H   0  0  0  0  0  0  0  0  0  0  0  0
   -3.4132    4.7661    0.7515 H   0  0  0  0  0  0  0  0  0  0  0  0
   -7.2208    3.7383    1.1740 H   0  0  0  0  0  0  0  0  0  0  0  0
   -6.2591    2.6507   -0.8932 H   0  0  0  0  0  0  0  0  0  0  0  0
   -4.8757    2.7758   -0.1249 H   0  0  0  0  0  0  0  0  0  0  0  0
   -7.0902    1.6668    2.4312 H   0  0  0  0  0  0  0  0  0  0  0  0
   -4.7348   -2.0699    0.1962 H   0  0  0  0  0  0  0  0  0  0  0  0
   -4.7193    0.1002   -0.8298 H   0  0  0  0  0  0  0  0  0  0  0  0
   -6.4648   -3.2593    2.9083 H   0  0  0  0  0  0  0  0  0  0  0  0
   -8.2782   -2.3609    3.6598 H   0  0  0  0  0  0  0  0  0  0  0  0
   -6.7564   -2.1677    4.7034 H   0  0  0  0  0  0  0  0  0  0  0  0
   -8.3189   -1.4587    5.2014 H   0  0  0  0  0  0  0  0  0  0  0  0
  1  2  1  0  0  0  0
  1 23  1  0  0  0  0
  1 24  1  0  0  0  0
  1 25  1  0  0  0  0
  2  3  1  0  0  0  0
  2  4  1  0  0  0  0
  2 26  1  0  0  0  0
  3 27  1  0  0  0  0
  3 28  1  0  0  0  0
  3 29  1  0  0  0  0
  4  5  2  0  0  0  0
  4 30  1  0  0  0  0
  5  6  1  0  0  0  0
  5 31  1  0  0  0  0
  6  7  1  0  0  0  0
  6 32  1  0  0  0  0
  6 33  1  0  0  0  0
  7  8  1  0  0  0  0
  7 34  1  0  0  0  0
  7 35  1  0  0  0  0
  8  9  1  0  0  0  0
  8 36  1  0  0  0  0
  8 37  1  0  0  0  0
  9 10  1  0  0  0  0
  9 38  1  0  0  0  0
  9 39  1  0  0  0  0
 10 11  2  0  0  0  0
 10 12  1  0  0  0  0
 12 13  1  0  0  0  0
 12 40  1  0  0  0  0
 13 14  1  0  0  0  0
 13 41  1  0  0  0  0
 13 42  1  0  0  0  0
 14 15  2  0  0  0  0
 14 19  1  0  0  0  0
 15 16  1  0  0  0  0
 15 43  1  0  0  0  0
 16 17  2  0  0  0  0
 16 21  1  0  0  0  0
 17 18  1  0  0  0  0
 17 20  1  0  0  0  0
 18 19  2  0  0  0  0
 18 44  1  0  0  0  0
 19 45  1  0  0  0  0
 20 46  1  0  0  0  0
 21 22  1  0  0  0  0
 22 47  1  0  0  0  0
 22 48  1  0  0  0  0
 22 49  1  0  0  0  0
M  END
$$$$

 OpenBabel05152416213D

 75 74  0  0  0  0  0  0  0  0999 V2000
    2.3451   -0.8438   -0.8279 C   0  0  0  0  0  0  0  0  0  0  0  0
    1.7526    2.0450   -0.3344 C   0  0  0  0  0  0  0  0  0  0  0  0
   -0.7346    1.7012    0.7983 C   0  0  0  0  0  0  0  0  0  0  0  0
   -1.6568    0.1453    0.3918 C   0  0  0  0  0  0  0  0  0  0  0  0
   -1.2390   -1.5679   -0.2990 C   0  0  0  0  0  0  0  0  0  0  0  0
    0.7478   -2.2189   -0.5660 C   0  0  0  0  0  0  0  0  0  0  0  0
    1.0927   -3.1803   -0.3691 C   0  0  0  0  0  0  0  0  0  0  0  0
    0.1872   -3.9459   -0.0412 N   0  0  0  0  0  0  0  0  0  0  0  0
    2.4601   -3.2279   -0.0420 N   0  0  0  0  0  0  0  0  0  0  0  0
   -1.4547    2.7565    0.6618 O   0  0  0  0  0  0  0  0  0  0  0  0
   -2.6462    2.7724    0.5804 C   0  0  0  0  0  0  0  0  0  0  0  0
   -3.1812    2.5511   -0.7345 C   0  0  0  0  0  0  0  0  0  0  0  0
   -3.2215    1.3620   -1.0374 C   0  0  0  0  0  0  0  0  0  0  0  0
   -3.9281    0.0295    0.1259 C   0  0  0  0  0  0  0  0  0  0  0  0
   -5.0840    0.1756    0.2334 C   0  0  0  0  0  0  0  0  0  0  0  0
   -5.6184   -0.1706   -0.9809 O   0  0  0  0  0  0  0  0  0  0  0  0
   -5.3747    0.4032   -2.2014 C   0  0  0  0  0  0  0  0  0  0  0  0
   -6.2520    1.0373   -2.9958 C   0  0  0  0  0  0  0  0  0  0  0  0
   -5.8167    1.5500   -4.2413 C   0  0  0  0  0  0  0  0  0  0  0  0
   -4.4893    1.8247   -4.5276 C   0  0  0  0  0  0  0  0  0  0  0  0
   -3.6383    1.1807   -3.7460 C   0  0  0  0  0  0  0  0  0  0  0  0
   -4.1759    0.1580   -2.7882 C   0  0  0  0  0  0  0  0  0  0  0  0
   -4.0489    2.6414   -5.6790 C   0  0  0  0  0  0  0  0  0  0  0  0
   -4.9421    3.1173   -6.4752 N   0  0  0  0  0  0  0  0  0  0  0  0
   -2.6630    2.9248   -5.9145 N   0  0  0  0  0  0  0  0  0  0  0  0
    0.4507   -0.1499   -0.0026 C   0  0  0  0  0  0  0  0  0  0  0  0
   -0.1504    1.7151   -1.2709 C   0  0  0  0  0  0  0  0  0  0  0  0
    1.0890    1.8955   -2.8834 S   0  0  0  0  0  0  0  0  0  0  0  0
    0.4376    0.6856   -3.3309 O   0  0  0  0  0  0  0  0  0  0  0  0
    0.5030    3.1963   -2.5165 O   0  0  0  0  0  0  0  0  0  0  0  0
    2.8166    1.5820   -2.3039 O   0  0  0  0  0  0  0  0  0  0  0  0
    0.0427   -0.6135   -1.7072 O   0  0  0  0  0  0  0  0  0  0  0  0
    2.0781    0.5451    1.1573 C   0  0  0  0  0  0  0  0  0  0  0  0
    0.7280   -1.4801    2.0130 C   0  0  0  0  0  0  0  0  0  0  0  0
    1.2489   -0.8704    3.1550 S   0  0  0  0  0  0  0  0  0  0  0  0
    0.5371    0.4210    3.4433 O   0  0  0  0  0  0  0  0  0  0  0  0
    0.6156   -1.9667    3.8392 O   0  0  0  0  0  0  0  0  0  0  0  0
    2.9371   -0.8811    2.9535 O   0  0  0  0  0  0  0  0  0  0  0  0
    1.4138    1.5547    1.5666 O   0  0  0  0  0  0  0  0  0  0  0  0
    3.2481   -0.9807   -0.4972 H   0  0  0  0  0  0  0  0  0  0  0  0
    2.2078    2.6850   -0.3601 H   0  0  0  0  0  0  0  0  0  0  0  0
   -1.9730    0.3310    0.0261 H   0  0  0  0  0  0  0  0  0  0  0  0
   -1.7731   -2.0915    0.0840 H   0  0  0  0  0  0  0  0  0  0  0  0
   -0.8286   -3.7258   -0.0877 H   0  0  0  0  0  0  0  0  0  0  0  0
    3.3124   -2.6771    0.0481 H   0  0  0  0  0  0  0  0  0  0  0  0
    2.8964   -4.0199   -0.0921 H   0  0  0  0  0  0  0  0  0  0  0  0
   -2.9330    2.1439    1.3917 H   0  0  0  0  0  0  0  0  0  0  0  0
   -2.6719    3.7820    0.7497 H   0  0  0  0  0  0  0  0  0  0  0  0
   -4.2150    2.5245   -0.6628 H   0  0  0  0  0  0  0  0  0  0  0  0
   -2.7666    3.0480   -1.5787 H   0  0  0  0  0  0  0  0  0  0  0  0
   -2.6350    1.2254   -1.8381 H   0  0  0  0  0  0  0  0  0  0  0  0
   -2.2281    0.8729   -1.7598 H   0  0  0  0  0  0  0  0  0  0  0  0
   -3.4764   -1.0800   -0.0677 H   0  0  0  0  0  0  0  0  0  0  0  0
   -3.4724    0.1809    1.3242 H   0  0  0  0  0  0  0  0  0  0  0  0
   -5.2699   -0.4594    1.0703 H   0  0  0  0  0  0  0  0  0  0  0  0
   -5.1034    1.2119    0.4935 H   0  0  0  0  0  0  0  0  0  0  0  0
   -7.2565    1.0388   -2.6943 H   0  0  0  0  0  0  0  0  0  0  0  0
   -6.5083    1.7362   -4.9614 H   0  0  0  0  0  0  0  0  0  0  0  0
   -2.5311    1.3360   -3.8464 H   0  0  0  0  0  0  0  0  0  0  0  0
   -3.4074   -0.5428   -2.0473 H   0  0  0  0  0  0  0  0  0  0  0  0
   -5.9509    2.9495   -6.3432 H   0  0  0  0  0  0  0  0  0  0  0  0
   -1.9152    2.5763   -5.2969 H   0  0  0  0  0  0  0  0  0  0  0  0
   -2.3656    3.4957   -6.7194 H   0  0  0  0  0  0  0  0  0  0  0  0
    0.0658    0.0079    1.1406 H   0  0  0  0  0  0  0  0  0  0  0  0
    2.2698   -1.2532    0.9920 H   0  0  0  0  0  0  0  0  0  0  0  0
   -0.7413    1.5044   -1.2553 H   0  0  0  0  0  0  0  0  0  0  0  0
    0.2950    3.1543    0.0895 H   0  0  0  0  0  0  0  0  0  0  0  0
    3.2310    1.9699   -3.0136 H   0  0  0  0  0  0  0  0  0  0  0  0
    0.8299   -1.0045   -2.2565 H   0  0  0  0  0  0  0  0  0  0  0  0
    1.4543    0.5214   -1.2990 H   0  0  0  0  0  0  0  0  0  0  0  0
    2.9781    0.7024    0.2993 H   0  0  0  0  0  0  0  0  0  0  0  0
   -0.5434   -1.6329    1.7468 H   0  0  0  0  0  0  0  0  0  0  0  0
    1.0983   -2.3098    1.6388 H   0  0  0  0  0  0  0  0  0  0  0  0
    3.2368   -0.6018    3.7734 H   0  0  0  0  0  0  0  0  0  0  0  0
    0.9269    1.5184    1.9822 H   0  0  0  0  0  0  0  0  0  0  0  0
  1  2  2  0  0  0  0
  1  6  1  0  0  0  0
  1 40  1  0  0  0  0
  2  3  1  0  0  0  0
  2 41  1  0  0  0  0
  3  4  2  0  0  0  0
  3 10  1  0  0  0  0
  4  5  1  0  0  0  0
  4 42  1  0  0  0  0
  5  6  2  0  0  0  0
  5 43  1  0  0  0  0
  6  7  1  0  0  0  0
  7  8  2  0  0  0  0
  7  9  1  0  0  0  0
  8 44  1  0  0  0  0
  9 45  1  0  0  0  0
  9 46  1  0  0  0  0
 10 11  1  0  0  0  0
 11 12  1  0  0  0  0
 11 47  1  0  0  0  0
 11 48  1  0  0  0  0
 12 13  1  0  0  0  0
 12 49  1  0  0  0  0
 12 50  1  0  0  0  0
 13 14  1  0  0  0  0
 13 51  1  0  0  0  0
 13 52  1  0  0  0  0
 14 15  1  0  0  0  0
 14 53  1  0  0  0  0
 14 54  1  0  0  0  0
 15 16  1  0  0  0  0
 15 55  1  0  0  0  0
 15 56  1  0  0  0  0
 16 17  1  0  0  0  0
 17 18  2  0  0  0  0
 17 22  1  0  0  0  0
 18 19  1  0  0  0  0
 18 57  1  0  0  0  0
 19 20  2  0  0  0  0
 19 58  1  0  0  0  0
 20 21  1  0  0  0  0
 20 23  1  0  0  0  0
 21 22  2  0  0  0  0
 21 59  1  0  0  0  0
 22 60  1  0  0  0  0
 23 24  2  0  0  0  0
 23 25  1  0  0  0  0
 24 61  1  0  0  0  0
 25 62  1  0  0  0  0
 25 63  1  0  0  0  0
 26 27  1  0  0  0  0
 26 32  1  0  0  0  0
 26 64  1  0  0  0  0
 26 65  1  0  0  0  0
 27 28  1  0  0  0  0
 27 66  1  0  0  0  0
 27 67  1  0  0  0  0
 28 29  2  0  0  0  0
 28 30  2  0  0  0  0
 28 31  1  0  0  0  0
 31 68  1  0  0  0  0
 32 69  1  0  0  0  0
 33 34  1  0  0  0  0
 33 39  1  0  0  0  0
 33 70  1  0  0  0  0
 33 71  1  0  0  0  0
 34 35  1  0  0  0  0
 34 72  1  0  0  0  0
 34 73  1  0  0  0  0
 35 36  2  0  0  0  0
 35 37  2  0  0  0  0
 35 38  1  0  0  0  0
 38 74  1  0  0  0  0
 39 75  1  0  0  0  0
M  END
$$$$

 OpenBabel05152416213D

 41 42  0  0  0  0  0  0  0  0999 V2000
   -1.2206    1.2451    0.1958 C   0  0  0  0  0  0  0  0  0  0  0  0
   -0.5832   -0.0019   -0.4195 C   0  0  0  0  0  0  0  0  0  0  0  0
   -1.2739   -1.2114    0.2114 C   0  0  0  0  0  0  0  0  0  0  0  0
    0.8390   -0.0296   -0.0975 C   0  0  0  0  0  0  0  0  0  0  0  0
    1.9721    0.0035    0.1205 N   0  0  0  0  0  0  0  0  0  0  0  0
   -0.7668   -0.0110   -1.9162 C   0  0  0  0  0  0  0  0  0  0  0  0
   -0.8897    1.1655   -2.6502 C   0  0  0  0  0  0  0  0  0  0  0  0
   -1.2812    1.1105   -3.9783 C   0  0  0  0  0  0  0  0  0  0  0  0
   -1.3511   -0.1118   -4.6221 C   0  0  0  0  0  0  0  0  0  0  0  0
   -1.2097   -1.2802   -3.9228 C   0  0  0  0  0  0  0  0  0  0  0  0
   -0.9025   -1.2202   -2.5866 C   0  0  0  0  0  0  0  0  0  0  0  0
   -1.4345   -2.5863   -4.5842 C   0  0  0  0  0  0  0  0  0  0  0  0
   -2.8005   -2.6783   -5.0977 N   0  0  0  0  0  0  0  0  0  0  0  0
   -3.3970   -1.8965   -6.0183 C   0  0  0  0  0  0  0  0  0  0  0  0
   -4.6550   -2.2968   -6.2386 N   0  0  0  0  0  0  0  0  0  0  0  0
   -4.7925   -3.3570   -5.4206 C   0  0  0  0  0  0  0  0  0  0  0  0
   -3.6698   -3.5978   -4.7205 N   0  0  0  0  0  0  0  0  0  0  0  0
   -1.9117    2.2976   -4.6513 C   0  0  0  0  0  0  0  0  0  0  0  0
   -1.4902    2.5816   -6.0887 C   0  0  0  0  0  0  0  0  0  0  0  0
   -3.3645    1.8490   -4.6482 C   0  0  0  0  0  0  0  0  0  0  0  0
   -1.8134    3.5477   -3.8720 C   0  0  0  0  0  0  0  0  0  0  0  0
   -1.6648    4.5251   -3.2727 N   0  0  0  0  0  0  0  0  0  0  0  0
   -2.3072    1.2752   -0.0071 H   0  0  0  0  0  0  0  0  0  0  0  0
   -1.0618    1.2531    1.2794 H   0  0  0  0  0  0  0  0  0  0  0  0
   -0.7657    2.1572   -0.2040 H   0  0  0  0  0  0  0  0  0  0  0  0
   -2.3540   -1.2169   -0.0225 H   0  0  0  0  0  0  0  0  0  0  0  0
   -0.8382   -2.1506   -0.1415 H   0  0  0  0  0  0  0  0  0  0  0  0
   -1.1353   -1.2102    1.2925 H   0  0  0  0  0  0  0  0  0  0  0  0
   -0.7084    2.1197   -2.2008 H   0  0  0  0  0  0  0  0  0  0  0  0
   -1.5368   -0.1073   -5.6668 H   0  0  0  0  0  0  0  0  0  0  0  0
   -0.7417   -2.1304   -2.0838 H   0  0  0  0  0  0  0  0  0  0  0  0
   -0.7189   -2.6990   -5.4018 H   0  0  0  0  0  0  0  0  0  0  0  0
   -1.2695   -3.3973   -3.8527 H   0  0  0  0  0  0  0  0  0  0  0  0
   -2.9624   -1.0650   -6.5359 H   0  0  0  0  0  0  0  0  0  0  0  0
   -5.6917   -3.9463   -5.3380 H   0  0  0  0  0  0  0  0  0  0  0  0
   -0.4068    2.6986   -6.1754 H   0  0  0  0  0  0  0  0  0  0  0  0
   -1.8266    1.7782   -6.7637 H   0  0  0  0  0  0  0  0  0  0  0  0
   -1.9779    3.5174   -6.4311 H   0  0  0  0  0  0  0  0  0  0  0  0
   -3.4789    0.8920   -5.1998 H   0  0  0  0  0  0  0  0  0  0  0  0
   -3.6922    1.6568   -3.6066 H   0  0  0  0  0  0  0  0  0  0  0  0
   -4.0055    2.5790   -5.1153 H   0  0  0  0  0  0  0  0  0  0  0  0
  1  2  1  0  0  0  0
  1 23  1  0  0  0  0
  1 24  1  0  0  0  0
  1 25  1  0  0  0  0
  2  3  1  0  0  0  0
  2  4  1  0  0  0  0
  2  6  1  0  0  0  0
  3 26  1  0  0  0  0
  3 27  1  0  0  0  0
  3 28  1  0  0  0  0
  4  5  3  0  0  0  0
  6  7  2  0  0  0  0
  6 11  1  0  0  0  0
  7  8  1  0  0  0  0
  7 29  1  0  0  0  0
  8  9  2  0  0  0  0
  8 18  1  0  0  0  0
  9 10  1  0  0  0  0
  9 30  1  0  0  0  0
 10 11  2  0  0  0  0
 10 12  1  0  0  0  0
 11 31  1  0  0  0  0
 12 13  1  0  0  0  0
 12 32  1  0  0  0  0
 12 33  1  0  0  0  0
 13 14  1  0  0  0  0
 13 17  1  0  0  0  0
 14 15  2  0  0  0  0
 14 34  1  0  0  0  0
 15 16  1  0  0  0  0
 16 17  2  0  0  0  0
 16 35  1  0  0  0  0
 18 19  1  0  0  0  0
 18 20  1  0  0  0  0
 18 21  1  0  0  0  0
 19 36  1  0  0  0  0
 19 37  1  0  0  0  0
 19 38  1  0  0  0  0
 20 39  1  0  0  0  0
 20 40  1  0  0  0  0
 20 41  1  0  0  0  0
 21 22  3  0  0  0  0
M  END
$$$$

 OpenBabel05152416213D

 20 21  0  0  0  0  0  0  0  0999 V2000
    2.1668   -0.6931   -0.0080 C   0  0  0  0  0  0  0  0  0  0  0  0
    2.1268    0.7182   -0.0170 C   0  0  0  0  0  0  0  0  0  0  0  0
    0.8931    1.3975   -0.0096 C   0  0  0  0  0  0  0  0  0  0  0  0
   -0.2723    0.6290   -0.0038 C   0  0  0  0  0  0  0  0  0  0  0  0
   -0.2315   -0.7420    0.0050 C   0  0  0  0  0  0  0  0  0  0  0  0
    0.9767   -1.4400    0.0083 C   0  0  0  0  0  0  0  0  0  0  0  0
   -1.5393   -1.1833   -0.0015 C   0  0  0  0  0  0  0  0  0  0  0  0
   -2.3282   -0.0383   -0.0191 C   0  0  0  0  0  0  0  0  0  0  0  0
   -1.5466    1.0666   -0.0139 N   0  0  0  0  0  0  0  0  0  0  0  0
   -2.0301   -2.6017    0.0017 C   0  0  0  0  0  0  0  0  0  0  0  0
   -2.8751   -2.8269    1.0967 O   0  0  0  0  0  0  0  0  0  0  0  0
    3.1196   -1.2061   -0.0171 H   0  0  0  0  0  0  0  0  0  0  0  0
    3.0525    1.2788   -0.0328 H   0  0  0  0  0  0  0  0  0  0  0  0
    0.8568    2.4793   -0.0165 H   0  0  0  0  0  0  0  0  0  0  0  0
    1.0062   -2.5205    0.0138 H   0  0  0  0  0  0  0  0  0  0  0  0
   -3.4106   -0.0175   -0.0345 H   0  0  0  0  0  0  0  0  0  0  0  0
   -1.8736    2.0579   -0.0233 H   0  0  0  0  0  0  0  0  0  0  0  0
   -2.6035   -2.7825   -0.9310 H   0  0  0  0  0  0  0  0  0  0  0  0
   -1.1885   -3.3275    0.0189 H   0  0  0  0  0  0  0  0  0  0  0  0
   -2.3216   -2.7155    1.9134 H   0  0  0  0  0  0  0  0  0  0  0  0
  1  2  2  0  0  0  0
  1  6  1  0  0  0  0
  1 12  1  0  0  0  0
  2  3  1  0  0  0  0
  2 13  1  0  0  0  0
  3  4  2  0  0  0  0
  3 14  1  0  0  0  0
  4  5  1  0  0  0  0
  4  9  1  0  0  0  0
  5  6  2  0  0  0  0
  5  7  1  0  0  0  0
  6 15  1  0  0  0  0
  7  8  2  0  0  0  0
  7 10  1  0  0  0  0
  8  9  1  0  0  0  0
  8 16  1  0  0  0  0
  9 17  1  0  0  0  0
 10 11  1  0  0  0  0
 10 18  1  0  0  0  0
 10 19  1  0  0  0  0
 11 20  1  0  0  0  0
M  END
$$$$

 OpenBabel05152416213D

 65 67  0  0  1  0  0  0  0  0999 V2000
    0.8794    0.9601    0.7318 C   0  0  0  0  0  0  0  0  0  0  0  0
    0.3406    2.2009    1.3605 C   0  0  0  0  0  0  0  0  0  0  0  0
   -0.3952    2.1419    2.7300 C   0  0  2  0  0  0  0  0  0  0  0  0
   -1.8350    1.7292    2.4830 C   0  0  0  0  0  0  0  0  0  0  0  0
   -0.3145    3.4515    3.5787 C   0  0  0  0  0  0  0  0  0  0  0  0
    0.1455    3.3703    4.7116 O   0  0  0  0  0  0  0  0  0  0  0  0
   -0.7215    4.6949    3.1737 O   0  0  0  0  0  0  0  0  0  0  0  0
   -1.4630    4.9843    2.0443 C   0  0  1  0  0  0  0  0  0  0  0  0
   -2.9398    5.0538    2.4045 C   0  0  0  0  0  0  0  0  0  0  0  0
   -3.2584    6.2326    3.3287 C   0  0  2  0  0  0  0  0  0  0  0  0
   -2.4744    7.4843    2.9783 C   0  0  0  0  0  0  0  0  0  0  0  0
   -1.4719    7.5216    2.0725 C   0  0  0  0  0  0  0  0  0  0  0  0
   -1.0510    6.2866    1.2945 C   0  0  1  0  0  0  0  0  0  0  0  0
    0.4614    6.4011    0.9837 C   0  0  2  0  0  0  0  0  0  0  0  0
    0.8303    7.6961    0.2379 C   0  0  2  0  0  0  0  0  0  0  0  0
    0.2761    8.8876    0.9643 C   0  0  0  0  0  0  0  0  0  0  0  0
   -0.7589    8.8048    1.8185 C   0  0  0  0  0  0  0  0  0  0  0  0
    0.3635    7.7091   -1.2329 C   0  0  0  0  0  0  0  0  0  0  0  0
    1.0694    5.2158    0.2378 C   0  0  0  0  0  0  0  0  0  0  0  0
    2.5757    5.0389    0.4603 C   0  0  0  0  0  0  0  0  0  0  0  0
    2.9963    5.0140    1.9630 C   0  0  2  0  0  0  0  0  0  0  0  0
    4.4987    4.8382    2.0724 C   0  0  0  0  0  0  0  0  0  0  0  0
    4.8500    4.5211    3.5290 C   0  0  2  0  0  0  0  0  0  0  0  0
    4.2950    3.1354    3.8789 C   0  0  0  0  0  0  0  0  0  0  0  0
    2.8832    3.0781    3.4868 C   0  0  0  0  0  0  0  0  0  0  0  0
    2.2441    2.0824    3.8291 O   0  0  0  0  0  0  0  0  0  0  0  0
    2.3139    4.0462    2.7157 O   0  0  0  0  0  0  0  0  0  0  0  0
    4.3613    5.5162    4.4104 O   0  0  0  0  0  0  0  0  0  0  0  0
   -3.0217    5.8726    4.8031 C   0  0  0  0  0  0  0  0  0  0  0  0
    1.6342    0.5081    1.4083 H   0  0  0  0  0  0  0  0  0  0  0  0
    1.4063    1.2923   -0.2020 H   0  0  0  0  0  0  0  0  0  0  0  0
    0.0530    0.2876    0.4692 H   0  0  0  0  0  0  0  0  0  0  0  0
    1.2727    2.7135    1.4503 H   0  0  0  0  0  0  0  0  0  0  0  0
   -0.3180    2.6222    0.5801 H   0  0  0  0  0  0  0  0  0  0  0  0
    0.0773    1.3349    3.3284 H   0  0  0  0  0  0  0  0  0  0  0  0
   -1.8662    0.8526    1.8143 H   0  0  0  0  0  0  0  0  0  0  0  0
   -2.3519    1.5342    3.4416 H   0  0  0  0  0  0  0  0  0  0  0  0
   -2.3812    2.4975    1.9334 H   0  0  0  0  0  0  0  0  0  0  0  0
   -1.3556    4.1997    1.3213 H   0  0  0  0  0  0  0  0  0  0  0  0
   -3.3224    4.1268    2.8803 H   0  0  0  0  0  0  0  0  0  0  0  0
   -3.4723    5.1711    1.4397 H   0  0  0  0  0  0  0  0  0  0  0  0
   -4.3456    6.4224    3.2090 H   0  0  0  0  0  0  0  0  0  0  0  0
   -2.7290    8.3893    3.5181 H   0  0  0  0  0  0  0  0  0  0  0  0
   -1.6129    6.2823    0.3388 H   0  0  0  0  0  0  0  0  0  0  0  0
    0.8653    6.4430    2.0060 H   0  0  0  0  0  0  0  0  0  0  0  0
    1.9389    7.7776    0.2621 H   0  0  0  0  0  0  0  0  0  0  0  0
    0.7434    9.8466    0.7759 H   0  0  0  0  0  0  0  0  0  0  0  0
   -1.0838    9.7069    2.3208 H   0  0  0  0  0  0  0  0  0  0  0  0
    0.6532    8.6547   -1.7222 H   0  0  0  0  0  0  0  0  0  0  0  0
    0.8370    6.9146   -1.8437 H   0  0  0  0  0  0  0  0  0  0  0  0
   -0.7366    7.5768   -1.2907 H   0  0  0  0  0  0  0  0  0  0  0  0
    0.6088    4.4055    0.6487 H   0  0  0  0  0  0  0  0  0  0  0  0
    0.7852    5.1188   -0.8282 H   0  0  0  0  0  0  0  0  0  0  0  0
    2.8761    4.0902   -0.0402 H   0  0  0  0  0  0  0  0  0  0  0  0
    3.1119    5.8642   -0.0496 H   0  0  0  0  0  0  0  0  0  0  0  0
    2.7821    5.9920    2.4224 H   0  0  0  0  0  0  0  0  0  0  0  0
    4.9777    5.7728    1.7169 H   0  0  0  0  0  0  0  0  0  0  0  0
    4.8248    3.9898    1.4294 H   0  0  0  0  0  0  0  0  0  0  0  0
    5.9439    4.4672    3.6477 H   0  0  0  0  0  0  0  0  0  0  0  0
    4.7990    2.3272    3.3050 H   0  0  0  0  0  0  0  0  0  0  0  0
    4.4005    2.9447    4.9654 H   0  0  0  0  0  0  0  0  0  0  0  0
    3.3713    5.4435    4.4988 H   0  0  0  0  0  0  0  0  0  0  0  0
   -3.3468    6.7125    5.4494 H   0  0  0  0  0  0  0  0  0  0  0  0
   -3.6201    4.9754    5.0762 H   0  0  0  0  0  0  0  0  0  0  0  0
   -1.9564    5.6597    5.0208 H   0  0  0  0  0  0  0  0  0  0  0  0
  1  2  1  0  0  0  0
  1 30  1  0  0  0  0
  1 31  1  0  0  0  0
  1 32  1  0  0  0  0
  2 33  1  0  0  0  0
  2 34  1  0  0  0  0
  3  5  1  0  0  0  0
  3 35  1  1  0  0  0
  3  4  1  0  0  0  0
  3  2  1  0  0  0  0
  4 36  1  0  0  0  0
  4 37  1  0  0  0  0
  4 38  1  0  0  0  0
  5  6  2  0  0  0  0
  5  7  1  0  0  0  0
  8  9  1  0  0  0  0
  8 13  1  0  0  0  0
  8 39  1  6  0  0  0
  8  7  1  0  0  0  0
  9 10  1  0  0  0  0
  9 40  1  0  0  0  0
  9 41  1  0  0  0  0
 10 11  1  0  0  0  0
 10 29  1  0  0  0  0
 10 42  1  6  0  0  0
 11 12  2  0  0  0  0
 11 43  1  0  0  0  0
 12 13  1  0  0  0  0
 12 17  1  0  0  0  0
 13 14  1  0  0  0  0
 13 44  1  6  0  0  0
 14 15  1  0  0  0  0
 14 45  1  1  0  0  0
 14 19  1  0  0  0  0
 15 16  1  0  0  0  0
 15 18  1  0  0  0  0
 15 46  1  1  0  0  0
 16 17  2  0  0  0  0
 16 47  1  0  0  0  0
 17 48  1  0  0  0  0
 18 49  1  0  0  0  0
 18 50  1  0  0  0  0
 18 51  1  0  0  0  0
 19 20  1  0  0  0  0
 19 52  1  0  0  0  0
 19 53  1  0  0  0  0
 20 21  1  0  0  0  0
 20 54  1  0  0  0  0
 20 55  1  0  0  0  0
 21 22  1  0  0  0  0
 21 27  1  0  0  0  0
 21 56  1  1  0  0  0
 22 23  1  0  0  0  0
 22 57  1  0  0  0  0
 22 58  1  0  0  0  0
 23 24  1  0  0  0  0
 23 28  1  0  0  0  0
 23 59  1  1  0  0  0
 24 25  1  0  0  0  0
 24 60  1  0  0  0  0
 24 61  1  0  0  0  0
 25 26  2  0  0  0  0
 25 27  1  0  0  0  0
 28 62  1  0  0  0  0
 29 63  1  0  0  0  0
 29 64  1  0  0  0  0
 29 65  1  0  0  0  0
M  END
$$$$

 OpenBabel05152416213D

 32 31  0  0  0  0  0  0  0  0999 V2000
    2.4634   -0.7215    0.0156 C   0  0  0  0  0  0  0  0  0  0  0  0
    2.4635    0.6808    0.1043 C   0  0  0  0  0  0  0  0  0  0  0  0
    1.2572    1.3931    0.0477 C   0  0  0  0  0  0  0  0  0  0  0  0
    0.0050    0.7105   -0.0537 C   0  0  0  0  0  0  0  0  0  0  0  0
    0.0192   -0.7138   -0.0999 C   0  0  0  0  0  0  0  0  0  0  0  0
    1.2471   -1.4181   -0.0960 C   0  0  0  0  0  0  0  0  0  0  0  0
   -1.1973   -1.4278   -0.1054 C   0  0  0  0  0  0  0  0  0  0  0  0
   -2.4074   -0.7457   -0.0613 C   0  0  0  0  0  0  0  0  0  0  0  0
   -2.4383    0.6337   -0.0539 C   0  0  0  0  0  0  0  0  0  0  0  0
   -1.2508    1.4098   -0.0672 C   0  0  0  0  0  0  0  0  0  0  0  0
   -1.3139    2.8374   -0.0851 N   0  0  0  0  0  0  0  0  0  0  0  0
   -2.5224    3.6524   -0.0875 C   0  0  0  0  0  0  0  0  0  0  0  0
   -2.5752    4.5399    1.1524 C   0  0  0  0  0  0  0  0  0  0  0  0
   -1.4797    5.5065    1.1607 N   0  0  0  0  0  0  0  0  0  0  0  0
    0.9627   -0.6460    3.2679 Cl  0  0  0  0  0  0  0  0  0  0  0  0
    1.6915    0.3090   -2.9047 Cl  0  0  0  0  0  0  0  0  0  0  0  0
    3.3978   -1.2771    0.0431 H   0  0  0  0  0  0  0  0  0  0  0  0
    3.3904    1.2420    0.2102 H   0  0  0  0  0  0  0  0  0  0  0  0
    1.3477    2.4613    0.1278 H   0  0  0  0  0  0  0  0  0  0  0  0
    1.2665   -2.5015   -0.1449 H   0  0  0  0  0  0  0  0  0  0  0  0
   -1.2284   -2.5088   -0.1079 H   0  0  0  0  0  0  0  0  0  0  0  0
   -3.3479   -1.2864   -0.0319 H   0  0  0  0  0  0  0  0  0  0  0  0
   -3.4227    1.0614   -0.0298 H   0  0  0  0  0  0  0  0  0  0  0  0
   -0.4455    3.3793   -0.1499 H   0  0  0  0  0  0  0  0  0  0  0  0
   -2.5422    4.2725   -1.0073 H   0  0  0  0  0  0  0  0  0  0  0  0
   -3.4499    3.0656   -0.0895 H   0  0  0  0  0  0  0  0  0  0  0  0
   -3.5398    5.0920    1.1395 H   0  0  0  0  0  0  0  0  0  0  0  0
   -2.5431    3.9066    2.0680 H   0  0  0  0  0  0  0  0  0  0  0  0
   -1.5817    6.1063    2.0087 H   0  0  0  0  0  0  0  0  0  0  0  0
   -0.5654    5.0122    1.2563 H   0  0  0  0  0  0  0  0  0  0  0  0
    1.1400   -0.0601    2.0817 H   0  0  0  0  0  0  0  0  0  0  0  0
    2.9417    0.2323   -2.3208 H   0  0  0  0  0  0  0  0  0  0  0  0
  1  2  2  0  0  0  0
  1  6  1  0  0  0  0
  1 17  1  0  0  0  0
  2  3  1  0  0  0  0
  2 18  1  0  0  0  0
  3  4  2  0  0  0  0
  3 19  1  0  0  0  0
  4  5  1  0  0  0  0
  4 10  1  0  0  0  0
  5  6  2  0  0  0  0
  5  7  1  0  0  0  0
  6 20  1  0  0  0  0
  7  8  2  0  0  0  0
  7 21  1  0  0  0  0
  8  9  1  0  0  0  0
  8 22  1  0  0  0  0
  9 10  2  0  0  0  0
  9 23  1  0  0  0  0
 10 11  1  0  0  0  0
 11 12  1  0  0  0  0
 11 24  1  0  0  0  0
 12 13  1  0  0  0  0
 12 25  1  0  0  0  0
 12 26  1  0  0  0  0
 13 14  1  0  0  0  0
 13 27  1  0  0  0  0
 13 28  1  0  0  0  0
 14 29  1  0  0  0  0
 14 30  1  0  0  0  0
 15 31  1  0  0  0  0
 16 32  1  0  0  0  0
M  END
$$$$

 OpenBabel05152416213D

 24 26  0  0  0  0  0  0  0  0999 V2000
    2.0040    1.0394    0.0063 C   0  0  0  0  0  0  0  0  0  0  0  0
    2.2345   -0.3469    0.0134 C   0  0  0  0  0  0  0  0  0  0  0  0
    1.1492   -1.2339   -0.0040 C   0  0  0  0  0  0  0  0  0  0  0  0
   -0.1698   -0.7091   -0.0195 C   0  0  0  0  0  0  0  0  0  0  0  0
   -0.4523    0.6173   -0.0104 C   0  0  0  0  0  0  0  0  0  0  0  0
    0.6600    1.5478   -0.0030 C   0  0  0  0  0  0  0  0  0  0  0  0
   -1.8398    0.7382   -0.0039 O   0  0  0  0  0  0  0  0  0  0  0  0
   -2.4147   -0.5825    0.0128 C   0  0  0  0  0  0  0  0  0  0  0  0
   -1.3125   -1.4200   -0.0077 O   0  0  0  0  0  0  0  0  0  0  0  0
   -3.2624   -0.9009   -1.0556 F   0  0  0  0  0  0  0  0  0  0  0  0
   -3.1931   -0.8754    1.1334 F   0  0  0  0  0  0  0  0  0  0  0  0
    1.4066   -2.6947    0.0101 C   0  0  0  0  0  0  0  0  0  0  0  0
    0.9753   -3.6116   -0.9229 C   0  0  0  0  0  0  0  0  0  0  0  0
    1.3530   -4.8542   -0.5478 N   0  0  0  0  0  0  0  0  0  0  0  0
    2.0398   -4.7563    0.6070 C   0  0  0  0  0  0  0  0  0  0  0  0
    2.1057   -3.4179    0.9608 C   0  0  0  0  0  0  0  0  0  0  0  0
    2.7166   -2.8993    2.1443 C   0  0  0  0  0  0  0  0  0  0  0  0
    3.2314   -2.5653    3.1227 N   0  0  0  0  0  0  0  0  0  0  0  0
    2.8815    1.6976    0.0092 H   0  0  0  0  0  0  0  0  0  0  0  0
    3.2488   -0.7515    0.0054 H   0  0  0  0  0  0  0  0  0  0  0  0
    0.5611    2.6238   -0.0033 H   0  0  0  0  0  0  0  0  0  0  0  0
    0.4372   -3.3764   -1.8359 H   0  0  0  0  0  0  0  0  0  0  0  0
    1.1558   -5.7359   -1.0642 H   0  0  0  0  0  0  0  0  0  0  0  0
    2.4584   -5.6100    1.1503 H   0  0  0  0  0  0  0  0  0  0  0  0
  1  2  2  0  0  0  0
  1  6  1  0  0  0  0
  1 19  1  0  0  0  0
  2  3  1  0  0  0  0
  2 20  1  0  0  0  0
  3  4  2  0  0  0  0
  3 12  1  0  0  0  0
  4  5  1  0  0  0  0
  4  9  1  0  0  0  0
  5  6  2  0  0  0  0
  5  7  1  0  0  0  0
  6 21  1  0  0  0  0
  7  8  1  0  0  0  0
  8  9  1  0  0  0  0
  8 10  1  0  0  0  0
  8 11  1  0  0  0  0
 12 13  2  0  0  0  0
 12 16  1  0  0  0  0
 13 14  1  0  0  0  0
 13 22  1  0  0  0  0
 14 15  1  0  0  0  0
 14 23  1  0  0  0  0
 15 16  2  0  0  0  0
 15 24  1  0  0  0  0
 16 17  1  0  0  0  0
 17 18  3  0  0  0  0
M  END
$$$$

 OpenBabel05152416213D

 37 38  0  0  0  0  0  0  0  0999 V2000
   -1.4676    0.3390   -0.4051 C   0  0  0  0  0  0  0  0  0  0  0  0
   -0.4933    1.4491    0.0541 C   0  0  0  0  0  0  0  0  0  0  0  0
    0.9686    1.0794   -0.2902 C   0  0  0  0  0  0  0  0  0  0  0  0
    1.3869   -0.3157    0.2516 C   0  0  0  0  0  0  0  0  0  0  0  0
    0.4010   -1.3874   -0.2944 C   0  0  0  0  0  0  0  0  0  0  0  0
   -1.0754   -1.0846    0.0534 C   0  0  0  0  0  0  0  0  0  0  0  0
    1.4728   -0.3420    1.7050 N   0  0  0  0  0  0  0  0  0  0  0  0
    0.3869   -0.0892    2.4034 C   0  0  0  0  0  0  0  0  0  0  0  0
   -0.6991    0.1637    3.1018 N   0  0  0  0  0  0  0  0  0  0  0  0
   -0.6241    0.6221    4.4730 C   0  0  0  0  0  0  0  0  0  0  0  0
   -0.0183    2.0392    4.5375 C   0  0  0  0  0  0  0  0  0  0  0  0
   -0.0155    2.5631    5.9837 C   0  0  0  0  0  0  0  0  0  0  0  0
   -1.4385    2.5540    6.5574 C   0  0  0  0  0  0  0  0  0  0  0  0
   -2.0170    1.1349    6.5173 C   0  0  0  0  0  0  0  0  0  0  0  0
   -2.0383    0.6143    5.0719 C   0  0  0  0  0  0  0  0  0  0  0  0
   -1.4675    0.3382   -1.5113 H   0  0  0  0  0  0  0  0  0  0  0  0
   -2.4952    0.5750   -0.0487 H   0  0  0  0  0  0  0  0  0  0  0  0
   -0.7638    2.4084   -0.4333 H   0  0  0  0  0  0  0  0  0  0  0  0
   -0.6078    1.6676    1.1276 H   0  0  0  0  0  0  0  0  0  0  0  0
    1.6627    1.8612    0.0885 H   0  0  0  0  0  0  0  0  0  0  0  0
    1.0551    1.0559   -1.3977 H   0  0  0  0  0  0  0  0  0  0  0  0
    2.4028   -0.5494   -0.1339 H   0  0  0  0  0  0  0  0  0  0  0  0
    0.6845   -2.3952    0.0803 H   0  0  0  0  0  0  0  0  0  0  0  0
    0.4867   -1.4008   -1.4021 H   0  0  0  0  0  0  0  0  0  0  0  0
   -1.2730   -1.2320    1.1270 H   0  0  0  0  0  0  0  0  0  0  0  0
   -1.7384   -1.8301   -0.4323 H   0  0  0  0  0  0  0  0  0  0  0  0
    0.0081   -0.0813    5.0625 H   0  0  0  0  0  0  0  0  0  0  0  0
    1.0239    2.0295    4.1516 H   0  0  0  0  0  0  0  0  0  0  0  0
   -0.6195    2.7273    3.9044 H   0  0  0  0  0  0  0  0  0  0  0  0
    0.3885    3.5976    6.0027 H   0  0  0  0  0  0  0  0  0  0  0  0
    0.6401    1.9209    6.6118 H   0  0  0  0  0  0  0  0  0  0  0  0
   -2.0855    3.2353    5.9615 H   0  0  0  0  0  0  0  0  0  0  0  0
   -1.4213    2.9207    7.6068 H   0  0  0  0  0  0  0  0  0  0  0  0
   -3.0507    1.1387    6.9237 H   0  0  0  0  0  0  0  0  0  0  0  0
   -1.3964    0.4614    7.1490 H   0  0  0  0  0  0  0  0  0  0  0  0
   -2.7069    1.2591    4.4613 H   0  0  0  0  0  0  0  0  0  0  0  0
   -2.4429   -0.4210    5.0609 H   0  0  0  0  0  0  0  0  0  0  0  0
  1  2  1  0  0  0  0
  1  6  1  0  0  0  0
  1 16  1  0  0  0  0
  1 17  1  0  0  0  0
  2  3  1  0  0  0  0
  2 18  1  0  0  0  0
  2 19  1  0  0  0  0
  3  4  1  0  0  0  0
  3 20  1  0  0  0  0
  3 21  1  0  0  0  0
  4  5  1  0  0  0  0
  4  7  1  0  0  0  0
  4 22  1  0  0  0  0
  5  6  1  0  0  0  0
  5 23  1  0  0  0  0
  5 24  1  0  0  0  0
  6 25  1  0  0  0  0
  6 26  1  0  0  0  0
  7  8  2  0  0  0  0
  8  9  2  0  0  0  0
  9 10  1  0  0  0  0
 10 11  1  0  0  0  0
 10 15  1  0  0  0  0
 10 27  1  0  0  0  0
 11 12  1  0  0  0  0
 11 28  1  0  0  0  0
 11 29  1  0  0  0  0
 12 13  1  0  0  0  0
 12 30  1  0  0  0  0
 12 31  1  0  0  0  0
 13 14  1  0  0  0  0
 13 32  1  0  0  0  0
 13 33  1  0  0  0  0
 14 15  1  0  0  0  0
 14 34  1  0  0  0  0
 14 35  1  0  0  0  0
 15 36  1  0  0  0  0
 15 37  1  0  0  0  0
M  END
$$$$

 OpenBabel05152416213D

 27 31  0  0  1  0  0  0  0  0999 V2000
    1.9203    0.0288    0.9875 C   0  0  0  0  0  0  0  0  0  0  0  0
    1.1678   -1.0659    0.2542 C   0  0  2  0  0  0  0  0  0  0  0  0
   -0.2217   -0.7491    0.9460 C   0  0  2  0  0  0  0  0  0  0  0  0
   -0.2332    0.8374    0.7965 C   0  0  2  0  0  0  0  0  0  0  0  0
    1.1397    1.1424    0.2695 C   0  0  1  0  0  0  0  0  0  0  0  0
    1.0756    0.7603   -1.2382 C   0  0  1  0  0  0  0  0  0  0  0  0
    1.3287   -0.6657   -1.2641 C   0  0  2  0  0  0  0  0  0  0  0  0
    2.2795    0.3088   -1.7225 O   0  0  0  0  0  0  0  0  0  0  0  0
   -1.3479    1.2398   -0.3141 C   0  0  2  0  0  0  0  0  0  0  0  0
   -2.3290    0.5953    0.1325 C   0  0  0  0  0  0  0  0  0  0  0  0
   -2.0305   -0.7854   -0.4037 C   0  0  0  0  0  0  0  0  0  0  0  0
   -1.6774   -1.2321    0.4968 C   0  0  1  0  0  0  0  0  0  0  0  0
   -2.3045    0.0511   -0.7872 C   0  0  0  0  0  0  0  0  0  0  0  0
   -4.2888   -0.0168   -1.3916 Cl  0  0  0  0  0  0  0  0  0  0  0  0
   -2.4669    0.3518   -2.7250 Cl  0  0  0  0  0  0  0  0  0  0  0  0
   -2.8990   -2.2249    1.3242 Cl  0  0  0  0  0  0  0  0  0  0  0  0
   -1.2885   -2.1188   -1.6827 Cl  0  0  0  0  0  0  0  0  0  0  0  0
   -2.9963    1.5227    1.5649 Cl  0  0  0  0  0  0  0  0  0  0  0  0
   -1.4725    2.8514   -1.0941 Cl  0  0  0  0  0  0  0  0  0  0  0  0
    3.0090   -0.0035    1.1622 H   0  0  0  0  0  0  0  0  0  0  0  0
    2.9571    0.0264    0.6070 H   0  0  0  0  0  0  0  0  0  0  0  0
    1.4640   -2.1241    0.3976 H   0  0  0  0  0  0  0  0  0  0  0  0
   -0.1163   -1.1256    1.9999 H   0  0  0  0  0  0  0  0  0  0  0  0
   -0.3546    1.2475    1.8455 H   0  0  0  0  0  0  0  0  0  0  0  0
    1.4099    2.2039    0.4368 H   0  0  0  0  0  0  0  0  0  0  0  0
    0.2684    0.9799   -1.9961 H   0  0  0  0  0  0  0  0  0  0  0  0
    0.8867   -1.1822   -2.1112 H   0  0  0  0  0  0  0  0  0  0  0  0
  1  2  1  0  0  0  0
  1  5  1  0  0  0  0
  1 20  1  0  0  0  0
  1 21  1  0  0  0  0
  2  3  1  0  0  0  0
  2  7  1  0  0  0  0
  2 22  1  6  0  0  0
  3  4  1  0  0  0  0
  3 12  1  0  0  0  0
  3 23  1  6  0  0  0
  4  5  1  0  0  0  0
  4  9  1  0  0  0  0
  4 24  1  6  0  0  0
  5  6  1  0  0  0  0
  5 25  1  6  0  0  0
  6  7  1  0  0  0  0
  6  8  1  0  0  0  0
  6 26  1  1  0  0  0
  7  8  1  0  0  0  0
  7 27  1  1  0  0  0
  9 10  1  0  0  0  0
  9 13  1  0  0  0  0
  9 19  1  6  0  0  0
 10 11  2  0  0  0  0
 10 18  1  0  0  0  0
 11 12  1  0  0  0  0
 11 17  1  0  0  0  0
 12 13  1  0  0  0  0
 12 16  1  6  0  0  0
 13 14  1  0  0  0  0
 13 15  1  0  0  0  0
M  END
$$$$

 OpenBabel05152416213D

 30 32  0  0  1  0  0  0  0  0999 V2000
   -0.9211   -1.0483   -0.1880 C   0  0  0  0  0  0  0  0  0  0  0  0
   -1.2268    0.3165    0.4240 C   0  0  2  0  0  0  0  0  0  0  0  0
   -0.0635    1.5341   -0.2509 S   0  0  0  0  0  0  0  0  0  0  0  0
    1.2723    0.3719   -0.0275 C   0  0  0  0  0  0  0  0  0  0  0  0
    2.5169    0.8034    0.2760 C   0  0  0  0  0  0  0  0  0  0  0  0
    2.8464    2.2869    0.2431 C   0  0  0  0  0  0  0  0  0  0  0  0
    3.1198    3.5175    0.2158 N   0  0  0  0  0  0  0  0  0  0  0  0
    3.6125   -0.1140    0.4828 N   0  0  0  0  0  0  0  0  0  0  0  0
    3.9242   -1.2281   -0.2166 C   0  0  0  0  0  0  0  0  0  0  0  0
    5.0452   -1.7845    0.3519 C   0  0  0  0  0  0  0  0  0  0  0  0
    5.4365   -1.0316    1.3992 N   0  0  0  0  0  0  0  0  0  0  0  0
    4.5485   -0.0170    1.4415 C   0  0  0  0  0  0  0  0  0  0  0  0
    0.8496   -1.3885   -0.1428 S   0  0  0  0  0  0  0  0  0  0  0  0
   -1.3874    0.3880    1.9602 C   0  0  0  0  0  0  0  0  0  0  0  0
   -0.4240    0.0645    2.9812 C   0  0  0  0  0  0  0  0  0  0  0  0
   -0.7560    0.2135    4.3311 C   0  0  0  0  0  0  0  0  0  0  0  0
   -2.0081    0.6661    4.7174 C   0  0  0  0  0  0  0  0  0  0  0  0
   -2.9569    0.9753    3.7527 C   0  0  0  0  0  0  0  0  0  0  0  0
   -2.6534    0.8389    2.4001 C   0  0  0  0  0  0  0  0  0  0  0  0
   -2.3826    0.8397    6.4200 Cl  0  0  0  0  0  0  0  0  0  0  0  0
    1.2062   -0.5451    2.7876 Cl  0  0  0  0  0  0  0  0  0  0  0  0
   -1.1779   -1.0251   -1.2710 H   0  0  0  0  0  0  0  0  0  0  0  0
   -1.5171   -1.8426    0.3065 H   0  0  0  0  0  0  0  0  0  0  0  0
   -2.2030    0.5839   -0.0364 H   0  0  0  0  0  0  0  0  0  0  0  0
    3.3993   -1.5964   -1.0846 H   0  0  0  0  0  0  0  0  0  0  0  0
    5.5511   -2.6816    0.0187 H   0  0  0  0  0  0  0  0  0  0  0  0
    4.5689    0.7625    2.1950 H   0  0  0  0  0  0  0  0  0  0  0  0
   -0.0257   -0.0290    5.0949 H   0  0  0  0  0  0  0  0  0  0  0  0
   -3.9354    1.3260    4.0483 H   0  0  0  0  0  0  0  0  0  0  0  0
   -3.4284    1.0986    1.6904 H   0  0  0  0  0  0  0  0  0  0  0  0
  1  2  1  0  0  0  0
  1 13  1  0  0  0  0
  1 22  1  0  0  0  0
  1 23  1  0  0  0  0
  2  3  1  0  0  0  0
  2 24  1  6  0  0  0
  2 14  1  0  0  0  0
  3  4  1  0  0  0  0
  4  5  2  0  0  0  0
  4 13  1  0  0  0  0
  5  6  1  0  0  0  0
  5  8  1  0  0  0  0
  6  7  3  0  0  0  0
  8  9  1  0  0  0  0
  8 12  1  0  0  0  0
  9 10  2  0  0  0  0
  9 25  1  0  0  0  0
 10 11  1  0  0  0  0
 10 26  1  0  0  0  0
 11 12  2  0  0  0  0
 12 27  1  0  0  0  0
 14 15  2  0  0  0  0
 14 19  1  0  0  0  0
 15 16  1  0  0  0  0
 15 21  1  0  0  0  0
 16 17  2  0  0  0  0
 16 28  1  0  0  0  0
 17 18  1  0  0  0  0
 17 20  1  0  0  0  0
 18 19  2  0  0  0  0
 18 29  1  0  0  0  0
 19 30  1  0  0  0  0
M  END
$$$$

 OpenBabel05152416213D

 43 44  0  0  0  0  0  0  0  0999 V2000
    0.9487   -0.3418   -0.2990 C   0  0  0  0  0  0  0  0  0  0  0  0
    0.4260    0.7059   -1.3083 C   0  0  0  0  0  0  0  0  0  0  0  0
    0.6753    0.0780   -2.6858 C   0  0  0  0  0  0  0  0  0  0  0  0
   -1.1141    0.7765   -1.2203 C   0  0  0  0  0  0  0  0  0  0  0  0
    1.0909    2.1738   -1.1435 C   0  0  0  0  0  0  0  0  0  0  0  0
    0.6330    2.8523    0.2326 C   0  0  0  0  0  0  0  0  0  0  0  0
    1.0797    2.2363    1.6078 C   0  0  0  0  0  0  0  0  0  0  0  0
    2.5801    2.0983    1.6793 C   0  0  0  0  0  0  0  0  0  0  0  0
    3.2583    0.8489    1.7192 C   0  0  0  0  0  0  0  0  0  0  0  0
    4.6569    0.8118    1.5888 C   0  0  0  0  0  0  0  0  0  0  0  0
    5.3823    2.0034    1.4763 C   0  0  0  0  0  0  0  0  0  0  0  0
    4.7152    3.2296    1.4734 C   0  0  0  0  0  0  0  0  0  0  0  0
    3.3300    3.2743    1.5688 C   0  0  0  0  0  0  0  0  0  0  0  0
    7.1285    1.9695    1.3290 Cl  0  0  0  0  0  0  0  0  0  0  0  0
    2.6901    2.2451   -1.2812 C   0  0  0  0  0  0  0  0  0  0  0  0
    3.2581    1.7415   -2.5160 N   0  0  0  0  0  0  0  0  0  0  0  0
    3.5099    2.3914   -3.6526 C   0  0  0  0  0  0  0  0  0  0  0  0
    3.8265    1.5269   -4.6366 N   0  0  0  0  0  0  0  0  0  0  0  0
    3.8092    0.3313   -4.0097 C   0  0  0  0  0  0  0  0  0  0  0  0
    3.5483    0.4604   -2.7082 N   0  0  0  0  0  0  0  0  0  0  0  0
    0.5600    2.9725   -2.1849 O   0  0  0  0  0  0  0  0  0  0  0  0
    0.6129   -1.3620   -0.5511 H   0  0  0  0  0  0  0  0  0  0  0  0
    0.5630   -0.2615    0.7112 H   0  0  0  0  0  0  0  0  0  0  0  0
    2.0545   -0.3485   -0.3259 H   0  0  0  0  0  0  0  0  0  0  0  0
    0.1016   -0.8566   -2.8268 H   0  0  0  0  0  0  0  0  0  0  0  0
    0.5228    0.7827   -3.5288 H   0  0  0  0  0  0  0  0  0  0  0  0
    1.6179   -0.4030   -2.7086 H   0  0  0  0  0  0  0  0  0  0  0  0
   -1.4798    1.1339   -0.2421 H   0  0  0  0  0  0  0  0  0  0  0  0
   -1.5150    1.4259   -2.0308 H   0  0  0  0  0  0  0  0  0  0  0  0
   -1.5389   -0.2424   -1.3543 H   0  0  0  0  0  0  0  0  0  0  0  0
    0.9799    3.9070    0.2185 H   0  0  0  0  0  0  0  0  0  0  0  0
   -0.4724    2.9547    0.2547 H   0  0  0  0  0  0  0  0  0  0  0  0
    0.7332    2.8838    2.4351 H   0  0  0  0  0  0  0  0  0  0  0  0
    0.5561    1.3123    1.8403 H   0  0  0  0  0  0  0  0  0  0  0  0
    2.7318   -0.0953    1.7687 H   0  0  0  0  0  0  0  0  0  0  0  0
    5.1780   -0.1391    1.5492 H   0  0  0  0  0  0  0  0  0  0  0  0
    5.2600    4.1559    1.3682 H   0  0  0  0  0  0  0  0  0  0  0  0
    2.8274    4.2293    1.5114 H   0  0  0  0  0  0  0  0  0  0  0  0
    3.0389    3.2944   -1.1312 H   0  0  0  0  0  0  0  0  0  0  0  0
    3.1696    1.6370   -0.5434 H   0  0  0  0  0  0  0  0  0  0  0  0
    3.4142    3.4622   -3.7753 H   0  0  0  0  0  0  0  0  0  0  0  0
    3.8774   -0.6351   -4.4989 H   0  0  0  0  0  0  0  0  0  0  0  0
    0.9114    3.8998   -2.0974 H   0  0  0  0  0  0  0  0  0  0  0  0
  1  2  1  0  0  0  0
  1 22  1  0  0  0  0
  1 23  1  0  0  0  0
  1 24  1  0  0  0  0
  2  3  1  0  0  0  0
  2  4  1  0  0  0  0
  2  5  1  0  0  0  0
  3 25  1  0  0  0  0
  3 26  1  0  0  0  0
  3 27  1  0  0  0  0
  4 28  1  0  0  0  0
  4 29  1  0  0  0  0
  4 30  1  0  0  0  0
  5  6  1  0  0  0  0
  5 15  1  0  0  0  0
  5 21  1  0  0  0  0
  6  7  1  0  0  0  0
  6 31  1  0  0  0  0
  6 32  1  0  0  0  0
  7  8  1  0  0  0  0
  7 33  1  0  0  0  0
  7 34  1  0  0  0  0
  8  9  2  0  0  0  0
  8 13  1  0  0  0  0
  9 10  1  0  0  0  0
  9 35  1  0  0  0  0
 10 11  2  0  0  0  0
 10 36  1  0  0  0  0
 11 12  1  0  0  0  0
 11 14  1  0  0  0  0
 12 13  2  0  0  0  0
 12 37  1  0  0  0  0
 13 38  1  0  0  0  0
 15 16  1  0  0  0  0
 15 39  1  0  0  0  0
 15 40  1  0  0  0  0
 16 17  1  0  0  0  0
 16 20  1  0  0  0  0
 17 18  2  0  0  0  0
 17 41  1  0  0  0  0
 18 19  1  0  0  0  0
 19 20  2  0  0  0  0
 19 42  1  0  0  0  0
 21 43  1  0  0  0  0
M  END
$$$$

 OpenBabel05152416213D

 39 39  0  0  0  0  0  0  0  0999 V2000
    1.0310   -0.0133   -0.1826 C   0  0  0  0  0  0  0  0  0  0  0  0
    0.5178   -1.4584   -0.2727 C   0  0  0  0  0  0  0  0  0  0  0  0
    0.9418   -2.2341    0.9848 C   0  0  0  0  0  0  0  0  0  0  0  0
    0.2939   -1.6110    2.2880 C   0  0  0  0  0  0  0  0  0  0  0  0
   -1.2066   -1.6120    2.2970 C   0  0  0  0  0  0  0  0  0  0  0  0
    0.6116   -3.6455    0.8895 N   0  0  0  0  0  0  0  0  0  0  0  0
    1.5709   -4.7217    0.8271 C   0  0  0  0  0  0  0  0  0  0  0  0
    1.3190   -5.7685   -0.1423 C   0  0  0  0  0  0  0  0  0  0  0  0
    2.2066   -6.8526   -0.2040 C   0  0  0  0  0  0  0  0  0  0  0  0
    3.3188   -6.9531    0.6247 C   0  0  0  0  0  0  0  0  0  0  0  0
    3.6119   -5.9419    1.5704 C   0  0  0  0  0  0  0  0  0  0  0  0
    2.7551   -4.8033    1.7124 C   0  0  0  0  0  0  0  0  0  0  0  0
    3.0697   -3.8265    2.7587 N   0  3  0  0  0  0  0  0  0  0  0  0
    2.3641   -2.9253    2.9874 O   0  0  0  0  0  0  0  0  0  0  0  0
    4.0597   -3.9081    3.5946 O   0  5  0  0  0  0  0  0  0  0  0  0
    4.8672   -6.1647    2.3986 C   0  0  0  0  0  0  0  0  0  0  0  0
    4.1907   -8.1867    0.4643 C   0  0  0  0  0  0  0  0  0  0  0  0
    0.2215   -5.7592   -1.1002 N   0  3  0  0  0  0  0  0  0  0  0  0
    0.1022   -6.6533   -1.8834 O   0  0  0  0  0  0  0  0  0  0  0  0
   -0.5989   -4.7387   -1.2249 O   0  5  0  0  0  0  0  0  0  0  0  0
    0.6274    0.5177    0.7012 H   0  0  0  0  0  0  0  0  0  0  0  0
    0.7142    0.5676   -1.0648 H   0  0  0  0  0  0  0  0  0  0  0  0
    2.1421   -0.0130   -0.1086 H   0  0  0  0  0  0  0  0  0  0  0  0
   -0.5826   -1.4762   -0.3945 H   0  0  0  0  0  0  0  0  0  0  0  0
    0.9536   -1.9322   -1.1805 H   0  0  0  0  0  0  0  0  0  0  0  0
    2.0509   -2.1486    0.9481 H   0  0  0  0  0  0  0  0  0  0  0  0
    0.4530   -2.1474    3.2368 H   0  0  0  0  0  0  0  0  0  0  0  0
    0.7258   -0.6092    2.4735 H   0  0  0  0  0  0  0  0  0  0  0  0
   -1.5576   -2.6636    2.2361 H   0  0  0  0  0  0  0  0  0  0  0  0
   -1.5354   -1.1893    3.2684 H   0  0  0  0  0  0  0  0  0  0  0  0
   -1.6008   -0.9992    1.4741 H   0  0  0  0  0  0  0  0  0  0  0  0
   -0.3841   -3.8721    0.7827 H   0  0  0  0  0  0  0  0  0  0  0  0
    2.0378   -7.6488   -0.9269 H   0  0  0  0  0  0  0  0  0  0  0  0
    4.7179   -7.0735    3.0119 H   0  0  0  0  0  0  0  0  0  0  0  0
    5.7253   -6.2043    1.7060 H   0  0  0  0  0  0  0  0  0  0  0  0
    5.2777   -5.4835    3.1212 H   0  0  0  0  0  0  0  0  0  0  0  0
    3.5933   -9.0966    0.6733 H   0  0  0  0  0  0  0  0  0  0  0  0
    4.6085   -8.2279   -0.5606 H   0  0  0  0  0  0  0  0  0  0  0  0
    5.0555   -8.2361    1.1487 H   0  0  0  0  0  0  0  0  0  0  0  0
  1  2  1  0  0  0  0
  1 21  1  0  0  0  0
  1 22  1  0  0  0  0
  1 23  1  0  0  0  0
  2  3  1  0  0  0  0
  2 24  1  0  0  0  0
  2 25  1  0  0  0  0
  3  4  1  0  0  0  0
  3  6  1  0  0  0  0
  3 26  1  0  0  0  0
  4  5  1  0  0  0  0
  4 27  1  0  0  0  0
  4 28  1  0  0  0  0
  5 29  1  0  0  0  0
  5 30  1  0  0  0  0
  5 31  1  0  0  0  0
  6  7  1  0  0  0  0
  6 32  1  0  0  0  0
  7  8  2  0  0  0  0
  7 12  1  0  0  0  0
  8  9  1  0  0  0  0
  8 18  1  0  0  0  0
  9 10  2  0  0  0  0
  9 33  1  0  0  0  0
 10 11  1  0  0  0  0
 10 17  1  0  0  0  0
 11 12  2  0  0  0  0
 11 16  1  0  0  0  0
 12 13  1  0  0  0  0
 13 14  2  0  0  0  0
 13 15  1  0  0  0  0
 16 34  1  0  0  0  0
 16 35  1  0  0  0  0
 16 36  1  0  0  0  0
 17 37  1  0  0  0  0
 17 38  1  0  0  0  0
 17 39  1  0  0  0  0
 18 19  2  0  0  0  0
 18 20  1  0  0  0  0
M  CHG  4  13   1  15  -1  18   1  20  -1
M  END
$$$$

 OpenBabel05152416213D

 70 73  0  0  1  0  0  0  0  0999 V2000
   -0.3523    3.6079    3.1388 C   0  0  0  0  0  0  0  0  0  0  0  0
    0.8867    2.9634    2.5712 C   0  0  1  0  0  0  0  0  0  0  0  0
    1.7615    4.1369    1.8845 C   0  0  2  0  0  0  0  0  0  0  0  0
    3.1075    3.6033    1.4730 C   0  0  2  0  0  0  0  0  0  0  0  0
    3.7718    2.4659    2.3050 C   0  0  0  0  0  0  0  0  0  0  0  0
    2.6493    1.4523    2.6528 C   0  0  1  0  0  0  0  0  0  0  0  0
    1.6679    2.1614    3.4389 O   0  0  0  0  0  0  0  0  0  0  0  0
    2.0981    0.5764    1.5856 O   0  0  0  0  0  0  0  0  0  0  0  0
    1.7039    1.0734    0.2666 C   0  0  1  0  0  0  0  0  0  0  0  0
    2.8578    1.6026   -0.5631 C   0  0  0  0  0  0  0  0  0  0  0  0
    3.7870    0.7454   -1.2307 C   0  0  1  0  0  0  0  0  0  0  0  0
    2.9263    0.1861   -2.3051 C   0  0  0  0  0  0  0  0  0  0  0  0
    1.5651   -0.3328   -1.8021 C   0  0  0  0  0  0  0  0  0  0  0  0
    0.9759    0.0812   -0.5785 C   0  0  0  0  0  0  0  0  0  0  0  0
   -0.2693   -0.4280   -0.1379 C   0  0  0  0  0  0  0  0  0  0  0  0
   -0.9022   -1.4123   -0.9483 C   0  0  0  0  0  0  0  0  0  0  0  0
   -0.3042   -1.7849   -2.1742 C   0  0  0  0  0  0  0  0  0  0  0  0
    0.9134   -1.2305   -2.6100 C   0  0  0  0  0  0  0  0  0  0  0  0
    1.4627   -1.5936   -3.7862 O   0  0  0  0  0  0  0  0  0  0  0  0
   -0.9231   -2.8083   -3.0410 C   0  0  0  0  0  0  0  0  0  0  0  0
   -0.4042   -3.1437   -4.0835 O   0  0  0  0  0  0  0  0  0  0  0  0
   -2.1740   -3.4422   -2.6177 C   0  0  0  0  0  0  0  0  0  0  0  0
   -2.7813   -3.1181   -1.4014 C   0  0  0  0  0  0  0  0  0  0  0  0
   -2.1683   -2.0938   -0.5168 C   0  0  0  0  0  0  0  0  0  0  0  0
   -2.6882   -1.8510    0.5431 O   0  0  0  0  0  0  0  0  0  0  0  0
   -3.9842   -3.7621   -1.0221 C   0  0  0  0  0  0  0  0  0  0  0  0
   -4.5463   -4.7019   -1.9063 C   0  0  0  0  0  0  0  0  0  0  0  0
   -3.9366   -5.0011   -3.1140 C   0  0  0  0  0  0  0  0  0  0  0  0
   -2.7506   -4.3849   -3.4717 C   0  0  0  0  0  0  0  0  0  0  0  0
   -4.5756   -3.4675    0.1605 O   0  0  0  0  0  0  0  0  0  0  0  0
   -5.7512   -4.0208    0.6199 C   0  0  0  0  0  0  0  0  0  0  0  0
   -0.7540    0.0127    1.0487 O   0  0  0  0  0  0  0  0  0  0  0  0
    4.9641    1.6520   -1.6943 C   0  0  0  0  0  0  0  0  0  0  0  0
    6.0766    1.4572   -1.2279 O   0  0  0  0  0  0  0  0  0  0  0  0
    4.7519    2.9096   -2.5404 C   0  0  0  0  0  0  0  0  0  0  0  0
    4.2048    2.6104   -3.7875 O   0  0  0  0  0  0  0  0  0  0  0  0
    4.2508   -0.2920   -0.3737 O   0  0  0  0  0  0  0  0  0  0  0  0
    4.0101    4.3709    0.6070 N   0  0  0  0  0  0  0  0  0  0  0  0
    2.0116    5.2281    2.7009 O   0  0  0  0  0  0  0  0  0  0  0  0
    1.6687   -2.3606    1.2354 Cl  0  0  0  0  0  0  0  0  0  0  0  0
   -0.2434    4.7060    3.1734 H   0  0  0  0  0  0  0  0  0  0  0  0
   -0.5806    3.1834    4.1244 H   0  0  0  0  0  0  0  0  0  0  0  0
   -1.1926    3.4711    2.4099 H   0  0  0  0  0  0  0  0  0  0  0  0
    0.3434    2.1434    2.0727 H   0  0  0  0  0  0  0  0  0  0  0  0
    1.1333    4.5334    1.0120 H   0  0  0  0  0  0  0  0  0  0  0  0
    2.4978    3.1855    0.8331 H   0  0  0  0  0  0  0  0  0  0  0  0
    4.6145    1.9218    1.8045 H   0  0  0  0  0  0  0  0  0  0  0  0
    4.2599    2.9003    3.1961 H   0  0  0  0  0  0  0  0  0  0  0  0
    3.1648    0.7309    3.3339 H   0  0  0  0  0  0  0  0  0  0  0  0
    0.9596    1.8812    0.2877 H   0  0  0  0  0  0  0  0  0  0  0  0
    3.5932    1.8831    0.0793 H   0  0  0  0  0  0  0  0  0  0  0  0
    2.4418    2.4167   -1.2199 H   0  0  0  0  0  0  0  0  0  0  0  0
    2.6650    0.9710   -3.0446 H   0  0  0  0  0  0  0  0  0  0  0  0
    3.5862   -0.5915   -2.7094 H   0  0  0  0  0  0  0  0  0  0  0  0
    2.2736   -1.2305   -4.1715 H   0  0  0  0  0  0  0  0  0  0  0  0
   -5.4671   -5.2033   -1.6619 H   0  0  0  0  0  0  0  0  0  0  0  0
   -4.3835   -5.7160   -3.7837 H   0  0  0  0  0  0  0  0  0  0  0  0
   -2.2862   -4.6322   -4.4152 H   0  0  0  0  0  0  0  0  0  0  0  0
   -6.5704   -3.7793   -0.0893 H   0  0  0  0  0  0  0  0  0  0  0  0
   -5.6318   -5.1210    0.7136 H   0  0  0  0  0  0  0  0  0  0  0  0
   -6.0018   -3.6016    1.6143 H   0  0  0  0  0  0  0  0  0  0  0  0
   -1.5053   -0.3186    1.5606 H   0  0  0  0  0  0  0  0  0  0  0  0
    4.0660    3.6320   -2.0621 H   0  0  0  0  0  0  0  0  0  0  0  0
    5.7038    3.4659   -2.6664 H   0  0  0  0  0  0  0  0  0  0  0  0
    4.6666    1.7978   -4.1104 H   0  0  0  0  0  0  0  0  0  0  0  0
    4.6327    0.0888    0.4665 H   0  0  0  0  0  0  0  0  0  0  0  0
    3.4662    4.6121   -0.2615 H   0  0  0  0  0  0  0  0  0  0  0  0
    4.7546    3.7174    0.2407 H   0  0  0  0  0  0  0  0  0  0  0  0
    2.0761    4.8711    3.6122 H   0  0  0  0  0  0  0  0  0  0  0  0
    2.4458   -1.6377    0.3664 H   0  0  0  0  0  0  0  0  0  0  0  0
  1 41  1  0  0  0  0
  1 42  1  0  0  0  0
  1 43  1  0  0  0  0
  2  3  1  0  0  0  0
  2  7  1  0  0  0  0
  2 44  1  6  0  0  0
  2  1  1  0  0  0  0
  3  4  1  0  0  0  0
  3 45  1  6  0  0  0
  3 39  1  0  0  0  0
  4  5  1  0  0  0  0
  4 46  1  6  0  0  0
  4 38  1  0  0  0  0
  5  6  1  0  0  0  0
  5 47  1  0  0  0  0
  5 48  1  0  0  0  0
  6  7  1  0  0  0  0
  6  8  1  0  0  0  0
  6 49  1  1  0  0  0
  9 10  1  0  0  0  0
  9 14  1  0  0  0  0
  9 50  1  1  0  0  0
  9  8  1  0  0  0  0
 10 11  1  0  0  0  0
 10 51  1  0  0  0  0
 10 52  1  0  0  0  0
 11 12  1  0  0  0  0
 11 33  1  6  0  0  0
 11 37  1  0  0  0  0
 12 13  1  0  0  0  0
 12 53  1  0  0  0  0
 12 54  1  0  0  0  0
 13 14  2  0  0  0  0
 13 18  1  0  0  0  0
 14 15  1  0  0  0  0
 15 16  2  0  0  0  0
 15 32  1  0  0  0  0
 16 17  1  0  0  0  0
 16 24  1  0  0  0  0
 17 18  2  0  0  0  0
 17 20  1  0  0  0  0
 18 19  1  0  0  0  0
 19 55  1  0  0  0  0
 20 21  2  0  0  0  0
 20 22  1  0  0  0  0
 22 23  2  0  0  0  0
 22 29  1  0  0  0  0
 23 24  1  0  0  0  0
 23 26  1  0  0  0  0
 24 25  2  0  0  0  0
 26 27  2  0  0  0  0
 26 30  1  0  0  0  0
 27 28  1  0  0  0  0
 27 56  1  0  0  0  0
 28 29  2  0  0  0  0
 28 57  1  0  0  0  0
 29 58  1  0  0  0  0
 30 31  1  0  0  0  0
 31 59  1  0  0  0  0
 31 60  1  0  0  0  0
 31 61  1  0  0  0  0
 32 62  1  0  0  0  0
 33 34  2  0  0  0  0
 33 35  1  0  0  0  0
 35 36  1  0  0  0  0
 35 63  1  0  0  0  0
 35 64  1  0  0  0  0
 36 65  1  0  0  0  0
 37 66  1  0  0  0  0
 38 67  1  0  0  0  0
 38 68  1  0  0  0  0
 39 69  1  0  0  0  0
 40 70  1  0  0  0  0
M  END
$$$$

 OpenBabel05152416213D

 36 39  0  0  0  0  0  0  0  0999 V2000
    2.4418   -0.0049   -0.0386 C   0  0  0  0  0  0  0  0  0  0  0  0
    1.8424    1.2432   -0.0419 C   0  0  0  0  0  0  0  0  0  0  0  0
    0.4740    1.3332   -0.0273 C   0  0  0  0  0  0  0  0  0  0  0  0
   -0.3322    0.2010    0.0204 C   0  0  0  0  0  0  0  0  0  0  0  0
    0.2184   -1.1212    0.0327 C   0  0  0  0  0  0  0  0  0  0  0  0
    1.6525   -1.1722   -0.0159 C   0  0  0  0  0  0  0  0  0  0  0  0
   -0.4934   -2.5045    0.2412 C   0  0  0  0  0  0  0  0  0  0  0  0
   -1.9748   -2.8115    0.6293 C   0  0  0  0  0  0  0  0  0  0  0  0
   -1.4025   -3.0523   -0.6640 O   0  0  0  0  0  0  0  0  0  0  0  0
   -1.7777   -3.4613    2.0196 C   0  0  0  0  0  0  0  0  0  0  0  0
   -1.6064   -2.4504    3.1434 N   0  0  0  0  0  0  0  0  0  0  0  0
   -1.8467   -1.0902    3.1884 C   0  0  0  0  0  0  0  0  0  0  0  0
   -1.6975   -0.6141    4.4317 N   0  0  0  0  0  0  0  0  0  0  0  0
   -1.3305   -1.6897    5.1335 C   0  0  0  0  0  0  0  0  0  0  0  0
   -1.2858   -2.8034    4.3573 N   0  0  0  0  0  0  0  0  0  0  0  0
   -3.2684   -1.9780    0.5357 C   0  0  0  0  0  0  0  0  0  0  0  0
   -3.6767   -1.3146   -0.6312 C   0  0  0  0  0  0  0  0  0  0  0  0
   -4.6342   -0.2834   -0.5247 C   0  0  0  0  0  0  0  0  0  0  0  0
   -5.1775    0.0567    0.7252 C   0  0  0  0  0  0  0  0  0  0  0  0
   -4.9235   -0.7381    1.8221 C   0  0  0  0  0  0  0  0  0  0  0  0
   -4.0567   -1.7930    1.7078 C   0  0  0  0  0  0  0  0  0  0  0  0
   -5.9344    1.1651    0.8887 F   0  0  0  0  0  0  0  0  0  0  0  0
   -1.9533    0.7204    0.1484 Cl  0  0  0  0  0  0  0  0  0  0  0  0
    3.5242   -0.0519   -0.0293 H   0  0  0  0  0  0  0  0  0  0  0  0
    2.4192    2.1585   -0.0382 H   0  0  0  0  0  0  0  0  0  0  0  0
    0.0221    2.3183   -0.0164 H   0  0  0  0  0  0  0  0  0  0  0  0
    2.1955   -2.1114    0.0106 H   0  0  0  0  0  0  0  0  0  0  0  0
    0.2656   -3.3290    0.3052 H   0  0  0  0  0  0  0  0  0  0  0  0
   -2.7047   -4.0455    2.1969 H   0  0  0  0  0  0  0  0  0  0  0  0
   -1.0214   -4.2700    2.0872 H   0  0  0  0  0  0  0  0  0  0  0  0
   -2.2003   -0.4401    2.4175 H   0  0  0  0  0  0  0  0  0  0  0  0
   -1.1129   -1.6570    6.1848 H   0  0  0  0  0  0  0  0  0  0  0  0
   -3.1610   -1.4729   -1.5701 H   0  0  0  0  0  0  0  0  0  0  0  0
   -4.8588    0.3269   -1.3818 H   0  0  0  0  0  0  0  0  0  0  0  0
   -5.3273   -0.5151    2.8040 H   0  0  0  0  0  0  0  0  0  0  0  0
   -3.9239   -2.3313    2.6315 H   0  0  0  0  0  0  0  0  0  0  0  0
  1  2  2  0  0  0  0
  1  6  1  0  0  0  0
  1 24  1  0  0  0  0
  2  3  1  0  0  0  0
  2 25  1  0  0  0  0
  3  4  2  0  0  0  0
  3 26  1  0  0  0  0
  4  5  1  0  0  0  0
  4 23  1  0  0  0  0
  5  6  2  0  0  0  0
  5  7  1  0  0  0  0
  6 27  1  0  0  0  0
  7  8  1  0  0  0  0
  7  9  1  0  0  0  0
  7 28  1  0  0  0  0
  8  9  1  0  0  0  0
  8 10  1  0  0  0  0
  8 16  1  0  0  0  0
 10 11  1  0  0  0  0
 10 29  1  0  0  0  0
 10 30  1  0  0  0  0
 11 12  1  0  0  0  0
 11 15  1  0  0  0  0
 12 13  2  0  0  0  0
 12 31  1  0  0  0  0
 13 14  1  0  0  0  0
 14 15  2  0  0  0  0
 14 32  1  0  0  0  0
 16 17  2  0  0  0  0
 16 21  1  0  0  0  0
 17 18  1  0  0  0  0
 17 33  1  0  0  0  0
 18 19  2  0  0  0  0
 18 34  1  0  0  0  0
 19 20  1  0  0  0  0
 19 22  1  0  0  0  0
 20 21  2  0  0  0  0
 20 35  1  0  0  0  0
 21 36  1  0  0  0  0
M  END
$$$$

 OpenBabel05152416213D

 15 15  0  0  0  0  0  0  0  0999 V2000
   -2.3441   -0.0191    0.0114 C   0  0  0  0  0  0  0  0  0  0  0  0
   -1.7276   -1.2582    0.0146 C   0  0  0  0  0  0  0  0  0  0  0  0
   -0.3716   -1.5526    0.0023 C   0  0  0  0  0  0  0  0  0  0  0  0
    0.7347   -0.6934   -0.0099 C   0  0  0  0  0  0  0  0  0  0  0  0
    0.7198    0.7123   -0.0185 C   0  0  0  0  0  0  0  0  0  0  0  0
    1.8037    1.2736   -0.0255 O   0  0  0  0  0  0  0  0  0  0  0  0
   -0.3989    1.5505   -0.0215 C   0  0  0  0  0  0  0  0  0  0  0  0
   -1.7502    1.2315   -0.0085 C   0  0  0  0  0  0  0  0  0  0  0  0
    1.9575   -1.2774   -0.0147 O   0  0  0  0  0  0  0  0  0  0  0  0
   -3.4277   -0.0301    0.0244 H   0  0  0  0  0  0  0  0  0  0  0  0
   -2.3937   -2.1132    0.0279 H   0  0  0  0  0  0  0  0  0  0  0  0
   -0.1509   -2.6140    0.0044 H   0  0  0  0  0  0  0  0  0  0  0  0
   -0.1932    2.6170   -0.0350 H   0  0  0  0  0  0  0  0  0  0  0  0
   -2.4333    2.0731   -0.0132 H   0  0  0  0  0  0  0  0  0  0  0  0
    2.0882   -2.2371   -0.0136 H   0  0  0  0  0  0  0  0  0  0  0  0
  1  2  2  0  0  0  0
  1  8  1  0  0  0  0
  1 10  1  0  0  0  0
  2  3  1  0  0  0  0
  2 11  1  0  0  0  0
  3  4  2  0  0  0  0
  3 12  1  0  0  0  0
  4  5  1  0  0  0  0
  4  9  1  0  0  0  0
  5  6  2  0  0  0  0
  5  7  1  0  0  0  0
  7  8  2  0  0  0  0
  7 13  1  0  0  0  0
  8 14  1  0  0  0  0
  9 15  1  0  0  0  0
M  END
$$$$

 OpenBabel05152416213D

 26 26  0  0  0  0  0  0  0  0999 V2000
    1.0947   -0.0372   -0.0824 C   0  0  0  0  0  0  0  0  0  0  0  0
    0.5566    0.4425    1.2839 C   0  0  0  0  0  0  0  0  0  0  0  0
    1.0381    1.8968    1.4959 C   0  0  0  0  0  0  0  0  0  0  0  0
   -0.9844    0.4438    1.2598 C   0  0  0  0  0  0  0  0  0  0  0  0
    1.0052   -0.4982    2.4165 C   0  0  0  0  0  0  0  0  0  0  0  0
    1.6400   -0.0253    3.5886 C   0  0  0  0  0  0  0  0  0  0  0  0
    1.9596   -0.8901    4.6378 C   0  0  0  0  0  0  0  0  0  0  0  0
    1.6689   -2.2583    4.5273 C   0  0  0  0  0  0  0  0  0  0  0  0
    1.0696   -2.7480    3.3627 C   0  0  0  0  0  0  0  0  0  0  0  0
    0.7353   -1.8803    2.3238 C   0  0  0  0  0  0  0  0  0  0  0  0
    1.9585   -3.0934    5.5468 O   0  0  0  0  0  0  0  0  0  0  0  0
    2.5288   -0.3785    5.7480 O   0  0  0  0  0  0  0  0  0  0  0  0
    0.7458    0.6394   -0.8931 H   0  0  0  0  0  0  0  0  0  0  0  0
    0.7292   -1.0531   -0.3372 H   0  0  0  0  0  0  0  0  0  0  0  0
    2.2049   -0.0523   -0.0853 H   0  0  0  0  0  0  0  0  0  0  0  0
    0.6913    2.5553    0.6719 H   0  0  0  0  0  0  0  0  0  0  0  0
    0.6363    2.3185    2.4419 H   0  0  0  0  0  0  0  0  0  0  0  0
    2.1500    1.9324    1.5218 H   0  0  0  0  0  0  0  0  0  0  0  0
   -1.3858   -0.5753    1.0754 H   0  0  0  0  0  0  0  0  0  0  0  0
   -1.3776    0.7947    2.2401 H   0  0  0  0  0  0  0  0  0  0  0  0
   -1.3699    1.1170    0.4659 H   0  0  0  0  0  0  0  0  0  0  0  0
    1.8726    1.0186    3.7339 H   0  0  0  0  0  0  0  0  0  0  0  0
    0.8452   -3.8022    3.2625 H   0  0  0  0  0  0  0  0  0  0  0  0
    0.2546   -2.2987    1.4506 H   0  0  0  0  0  0  0  0  0  0  0  0
    1.7442   -4.0358    5.5128 H   0  0  0  0  0  0  0  0  0  0  0  0
    2.7531   -0.9190    6.5180 H   0  0  0  0  0  0  0  0  0  0  0  0
  1  2  1  0  0  0  0
  1 13  1  0  0  0  0
  1 14  1  0  0  0  0
  1 15  1  0  0  0  0
  2  3  1  0  0  0  0
  2  4  1  0  0  0  0
  2  5  1  0  0  0  0
  3 16  1  0  0  0  0
  3 17  1  0  0  0  0
  3 18  1  0  0  0  0
  4 19  1  0  0  0  0
  4 20  1  0  0  0  0
  4 21  1  0  0  0  0
  5  6  2  0  0  0  0
  5 10  1  0  0  0  0
  6  7  1  0  0  0  0
  6 22  1  0  0  0  0
  7  8  2  0  0  0  0
  7 12  1  0  0  0  0
  8  9  1  0  0  0  0
  8 11  1  0  0  0  0
  9 10  2  0  0  0  0
  9 23  1  0  0  0  0
 10 24  1  0  0  0  0
 11 25  1  0  0  0  0
 12 26  1  0  0  0  0
M  END
$$$$

 OpenBabel05152416213D

 48 50  0  0  0  0  0  0  0  0999 V2000
    0.9540   -0.0885   -0.0807 C   0  0  0  0  0  0  0  0  0  0  0  0
    0.4271   -0.0841    1.1876 O   0  0  0  0  0  0  0  0  0  0  0  0
    0.8627   -0.8372    2.2157 C   0  0  0  0  0  0  0  0  0  0  0  0
   -0.0321   -1.0965    3.2331 C   0  0  0  0  0  0  0  0  0  0  0  0
    0.3369   -1.8586    4.3160 C   0  0  0  0  0  0  0  0  0  0  0  0
    1.6242   -2.4331    4.4508 C   0  0  0  0  0  0  0  0  0  0  0  0
    2.5410   -2.1397    3.4056 C   0  0  0  0  0  0  0  0  0  0  0  0
    2.1679   -1.3556    2.3112 C   0  0  0  0  0  0  0  0  0  0  0  0
    2.0292   -3.3379    5.6132 C   0  0  0  0  0  0  0  0  0  0  0  0
    1.1655   -3.7726    6.6154 C   0  0  0  0  0  0  0  0  0  0  0  0
    1.5949   -4.5329    7.8206 C   0  0  0  0  0  0  0  0  0  0  0  0
    0.6990   -5.4372    8.4272 C   0  0  0  0  0  0  0  0  0  0  0  0
    1.0276   -6.0785    9.6095 C   0  0  0  0  0  0  0  0  0  0  0  0
    2.2683   -5.8516   10.2111 C   0  0  0  0  0  0  0  0  0  0  0  0
    3.1718   -4.9591    9.6044 C   0  0  0  0  0  0  0  0  0  0  0  0
    2.8354   -4.3034    8.4414 C   0  0  0  0  0  0  0  0  0  0  0  0
    2.5664   -6.4946   11.3578 O   0  0  0  0  0  0  0  0  0  0  0  0
    3.7902   -6.4020   11.9850 C   0  0  0  0  0  0  0  0  0  0  0  0
   -0.5693   -3.4178    6.7654 Cl  0  0  0  0  0  0  0  0  0  0  0  0
    3.4505   -3.8464    5.6494 C   0  0  0  0  0  0  0  0  0  0  0  0
    3.7204   -5.2320    5.7341 C   0  0  0  0  0  0  0  0  0  0  0  0
    5.0329   -5.7016    5.8662 C   0  0  0  0  0  0  0  0  0  0  0  0
    6.1051   -4.8004    5.9137 C   0  0  0  0  0  0  0  0  0  0  0  0
    5.8380   -3.4200    5.8263 C   0  0  0  0  0  0  0  0  0  0  0  0
    4.5324   -2.9509    5.6903 C   0  0  0  0  0  0  0  0  0  0  0  0
    7.3692   -5.2828    6.0322 O   0  0  0  0  0  0  0  0  0  0  0  0
    8.5080   -4.5002    6.0007 C   0  0  0  0  0  0  0  0  0  0  0  0
    0.4959    0.7422   -0.6496 H   0  0  0  0  0  0  0  0  0  0  0  0
    0.7040   -1.0534   -0.5717 H   0  0  0  0  0  0  0  0  0  0  0  0
    2.0487    0.0665   -0.0585 H   0  0  0  0  0  0  0  0  0  0  0  0
   -1.0456   -0.7144    3.1844 H   0  0  0  0  0  0  0  0  0  0  0  0
   -0.4572   -1.9443    4.9923 H   0  0  0  0  0  0  0  0  0  0  0  0
    3.5533   -2.5142    3.4023 H   0  0  0  0  0  0  0  0  0  0  0  0
    2.9059   -1.1598    1.5476 H   0  0  0  0  0  0  0  0  0  0  0  0
   -0.2683   -5.6478    7.9875 H   0  0  0  0  0  0  0  0  0  0  0  0
    0.3071   -6.7507   10.0574 H   0  0  0  0  0  0  0  0  0  0  0  0
    4.1386   -4.7423   10.0354 H   0  0  0  0  0  0  0  0  0  0  0  0
    3.5514   -3.5910    8.0673 H   0  0  0  0  0  0  0  0  0  0  0  0
    4.5833   -6.7415   11.2834 H   0  0  0  0  0  0  0  0  0  0  0  0
    3.9854   -5.3501   12.2905 H   0  0  0  0  0  0  0  0  0  0  0  0
    3.7950   -7.0506   12.8782 H   0  0  0  0  0  0  0  0  0  0  0  0
    2.9083   -5.9494    5.7073 H   0  0  0  0  0  0  0  0  0  0  0  0
    5.2158   -6.7686    5.9388 H   0  0  0  0  0  0  0  0  0  0  0  0
    6.6372   -2.6943    5.8767 H   0  0  0  0  0  0  0  0  0  0  0  0
    4.3632   -1.8839    5.6563 H   0  0  0  0  0  0  0  0  0  0  0  0
    8.5362   -3.9282    5.0479 H   0  0  0  0  0  0  0  0  0  0  0  0
    8.5184   -3.7963    6.8610 H   0  0  0  0  0  0  0  0  0  0  0  0
    9.4096   -5.1421    6.0495 H   0  0  0  0  0  0  0  0  0  0  0  0
  1  2  1  0  0  0  0
  1 28  1  0  0  0  0
  1 29  1  0  0  0  0
  1 30  1  0  0  0  0
  2  3  1  0  0  0  0
  3  4  2  0  0  0  0
  3  8  1  0  0  0  0
  4  5  1  0  0  0  0
  4 31  1  0  0  0  0
  5  6  2  0  0  0  0
  5 32  1  0  0  0  0
  6  7  1  0  0  0  0
  6  9  1  0  0  0  0
  7  8  2  0  0  0  0
  7 33  1  0  0  0  0
  8 34  1  0  0  0  0
  9 10  2  0  0  0  0
  9 20  1  0  0  0  0
 10 11  1  0  0  0  0
 10 19  1  0  0  0  0
 11 12  2  0  0  0  0
 11 16  1  0  0  0  0
 12 13  1  0  0  0  0
 12 35  1  0  0  0  0
 13 14  2  0  0  0  0
 13 36  1  0  0  0  0
 14 15  1  0  0  0  0
 14 17  1  0  0  0  0
 15 16  2  0  0  0  0
 15 37  1  0  0  0  0
 16 38  1  0  0  0  0
 17 18  1  0  0  0  0
 18 39  1  0  0  0  0
 18 40  1  0  0  0  0
 18 41  1  0  0  0  0
 20 21  2  0  0  0  0
 20 25  1  0  0  0  0
 21 22  1  0  0  0  0
 21 42  1  0  0  0  0
 22 23  2  0  0  0  0
 22 43  1  0  0  0  0
 23 24  1  0  0  0  0
 23 26  1  0  0  0  0
 24 25  2  0  0  0  0
 24 44  1  0  0  0  0
 25 45  1  0  0  0  0
 26 27  1  0  0  0  0
 27 46  1  0  0  0  0
 27 47  1  0  0  0  0
 27 48  1  0  0  0  0
M  END
$$$$

 OpenBabel05152416213D

 60 62  0  0  0  0  0  0  0  0999 V2000
    0.0964    0.7791   -0.2443 C   0  0  0  0  0  0  0  0  0  0  0  0
   -0.0332    0.3182   -1.6378 C   0  0  0  0  0  0  0  0  0  0  0  0
   -0.1664   -0.9516   -2.1234 N   0  0  0  0  0  0  0  0  0  0  0  0
   -0.3149   -0.7701   -3.4550 C   0  0  0  0  0  0  0  0  0  0  0  0
   -0.2837    0.5954   -3.7328 C   0  0  0  0  0  0  0  0  0  0  0  0
   -0.0350    1.2067   -2.5965 N   0  0  0  0  0  0  0  0  0  0  0  0
    0.1315    2.5939   -2.2632 C   0  0  0  0  0  0  0  0  0  0  0  0
   -1.0031    3.3600   -2.1846 C   0  0  0  0  0  0  0  0  0  0  0  0
   -0.9003    4.6678   -1.7421 C   0  0  0  0  0  0  0  0  0  0  0  0
    0.3294    5.1888   -1.3136 C   0  0  0  0  0  0  0  0  0  0  0  0
    1.4648    4.3652   -1.2893 C   0  0  0  0  0  0  0  0  0  0  0  0
    1.3672    3.0634   -1.7709 C   0  0  0  0  0  0  0  0  0  0  0  0
    0.3062    6.9085   -0.8060 S   0  0  0  0  0  0  0  0  0  0  0  0
    1.9912    7.2512   -0.2791 C   0  0  0  0  0  0  0  0  0  0  0  0
    2.1608    7.7713    0.9983 C   0  0  0  0  0  0  0  0  0  0  0  0
    3.4053    8.2000    1.4104 C   0  0  0  0  0  0  0  0  0  0  0  0
    4.4948    8.1065    0.5706 C   0  0  0  0  0  0  0  0  0  0  0  0
    4.4010    7.5766   -0.7416 C   0  0  0  0  0  0  0  0  0  0  0  0
    3.0954    7.1417   -1.1410 C   0  0  0  0  0  0  0  0  0  0  0  0
    5.6019    7.4851   -1.7562 C   0  0  0  0  0  0  0  0  0  0  0  0
    5.1450    8.2364   -3.0354 C   0  0  0  0  0  0  0  0  0  0  0  0
    6.0749    7.9703   -4.2143 C   0  0  0  0  0  0  0  0  0  0  0  0
    6.2712    6.5731   -4.4703 O   0  0  0  0  0  0  0  0  0  0  0  0
    6.6659    5.7968   -3.3309 C   0  0  0  0  0  0  0  0  0  0  0  0
    5.7432    5.9880   -2.1311 C   0  0  0  0  0  0  0  0  0  0  0  0
    6.9932    8.0801   -1.2472 C   0  0  0  0  0  0  0  0  0  0  0  0
    7.0816    8.5711   -0.1447 O   0  0  0  0  0  0  0  0  0  0  0  0
    8.1583    8.1160   -1.9531 N   0  0  0  0  0  0  0  0  0  0  0  0
    2.0241   -0.8225    0.7592 C   0  0  0  0  0  0  0  0  0  0  0  0
    0.8339   -2.0813    1.2010 S   0  0  0  0  0  0  0  0  0  0  0  0
    0.9950   -2.4626    2.6722 O   0  0  0  0  0  0  0  0  0  0  0  0
   -0.6958   -1.8924    1.0303 O   0  0  0  0  0  0  0  0  0  0  0  0
    1.2400   -3.4247    0.2323 O   0  0  0  0  0  0  0  0  0  0  0  0
   -0.4454    0.1897    0.4711 H   0  0  0  0  0  0  0  0  0  0  0  0
   -0.2671    1.7792    0.0232 H   0  0  0  0  0  0  0  0  0  0  0  0
    1.1511    1.0966   -0.2262 H   0  0  0  0  0  0  0  0  0  0  0  0
   -0.4521   -1.5630   -4.1827 H   0  0  0  0  0  0  0  0  0  0  0  0
   -0.4111    1.0926   -4.6786 H   0  0  0  0  0  0  0  0  0  0  0  0
   -1.9629    2.9210   -2.4254 H   0  0  0  0  0  0  0  0  0  0  0  0
   -1.7975    5.2624   -1.7221 H   0  0  0  0  0  0  0  0  0  0  0  0
    2.4191    4.6908   -0.9054 H   0  0  0  0  0  0  0  0  0  0  0  0
    2.2495    2.4297   -1.7132 H   0  0  0  0  0  0  0  0  0  0  0  0
    1.3243    7.8808    1.6715 H   0  0  0  0  0  0  0  0  0  0  0  0
    3.5457    8.6418    2.3864 H   0  0  0  0  0  0  0  0  0  0  0  0
    5.3592    8.4867    1.0425 H   0  0  0  0  0  0  0  0  0  0  0  0
    2.9030    6.7346   -2.1255 H   0  0  0  0  0  0  0  0  0  0  0  0
    4.1521    7.8868   -3.3866 H   0  0  0  0  0  0  0  0  0  0  0  0
    5.0421    9.3252   -2.8313 H   0  0  0  0  0  0  0  0  0  0  0  0
    5.6186    8.4327   -5.1132 H   0  0  0  0  0  0  0  0  0  0  0  0
    7.0014    8.5495   -4.1363 H   0  0  0  0  0  0  0  0  0  0  0  0
    7.7181    5.9106   -3.0480 H   0  0  0  0  0  0  0  0  0  0  0  0
    6.6454    4.7245   -3.6100 H   0  0  0  0  0  0  0  0  0  0  0  0
    6.0927    5.3975   -1.2549 H   0  0  0  0  0  0  0  0  0  0  0  0
    4.7667    5.5553   -2.4437 H   0  0  0  0  0  0  0  0  0  0  0  0
    8.3334    7.7793   -2.8945 H   0  0  0  0  0  0  0  0  0  0  0  0
    8.9913    8.5324   -1.5155 H   0  0  0  0  0  0  0  0  0  0  0  0
    1.7844    0.0556    1.4009 H   0  0  0  0  0  0  0  0  0  0  0  0
    1.9196   -0.8512   -0.3478 H   0  0  0  0  0  0  0  0  0  0  0  0
    3.1144   -0.9198    0.7874 H   0  0  0  0  0  0  0  0  0  0  0  0
    0.6035   -4.1356    0.4428 H   0  0  0  0  0  0  0  0  0  0  0  0
  1  2  1  0  0  0  0
  1 34  1  0  0  0  0
  1 35  1  0  0  0  0
  1 36  1  0  0  0  0
  2  3  2  0  0  0  0
  2  6  1  0  0  0  0
  3  4  1  0  0  0  0
  4  5  2  0  0  0  0
  4 37  1  0  0  0  0
  5  6  1  0  0  0  0
  5 38  1  0  0  0  0
  6  7  1  0  0  0  0
  7  8  2  0  0  0  0
  7 12  1  0  0  0  0
  8  9  1  0  0  0  0
  8 39  1  0  0  0  0
  9 10  2  0  0  0  0
  9 40  1  0  0  0  0
 10 11  1  0  0  0  0
 10 13  1  0  0  0  0
 11 12  2  0  0  0  0
 11 41  1  0  0  0  0
 12 42  1  0  0  0  0
 13 14  1  0  0  0  0
 14 15  2  0  0  0  0
 14 19  1  0  0  0  0
 15 16  1  0  0  0  0
 15 43  1  0  0  0  0
 16 17  2  0  0  0  0
 16 44  1  0  0  0  0
 17 18  1  0  0  0  0
 17 45  1  0  0  0  0
 18 19  2  0  0  0  0
 18 20  1  0  0  0  0
 19 46  1  0  0  0  0
 20 21  1  0  0  0  0
 20 25  1  0  0  0  0
 20 26  1  0  0  0  0
 21 22  1  0  0  0  0
 21 47  1  0  0  0  0
 21 48  1  0  0  0  0
 22 23  1  0  0  0  0
 22 49  1  0  0  0  0
 22 50  1  0  0  0  0
 23 24  1  0  0  0  0
 24 25  1  0  0  0  0
 24 51  1  0  0  0  0
 24 52  1  0  0  0  0
 25 53  1  0  0  0  0
 25 54  1  0  0  0  0
 26 27  2  0  0  0  0
 26 28  1  0  0  0  0
 28 55  1  0  0  0  0
 28 56  1  0  0  0  0
 29 30  1  0  0  0  0
 29 57  1  0  0  0  0
 29 58  1  0  0  0  0
 29 59  1  0  0  0  0
 30 31  2  0  0  0  0
 30 32  2  0  0  0  0
 30 33  1  0  0  0  0
 33 60  1  0  0  0  0
M  END
$$$$

 OpenBabel05152416213D

 34 36  0  0  0  0  0  0  0  0999 V2000
    2.3934    0.0975    0.0828 C   0  0  0  0  0  0  0  0  0  0  0  0
    1.7016    1.2920    0.0058 C   0  0  0  0  0  0  0  0  0  0  0  0
    0.3116    1.2822   -0.0369 C   0  0  0  0  0  0  0  0  0  0  0  0
   -0.4072    0.0763   -0.0516 C   0  0  0  0  0  0  0  0  0  0  0  0
    0.2864   -1.1784   -0.0184 C   0  0  0  0  0  0  0  0  0  0  0  0
    1.7025   -1.1069    0.0968 C   0  0  0  0  0  0  0  0  0  0  0  0
   -0.4145   -2.5760   -0.0661 C   0  0  0  0  0  0  0  0  0  0  0  0
   -0.0239   -3.3518   -1.3575 C   0  0  0  0  0  0  0  0  0  0  0  0
    1.3187   -3.7211   -1.6215 C   0  0  0  0  0  0  0  0  0  0  0  0
    1.6697   -4.5044   -2.7030 C   0  0  0  0  0  0  0  0  0  0  0  0
    0.6952   -4.9530   -3.5789 C   0  0  0  0  0  0  0  0  0  0  0  0
   -0.6397   -4.5937   -3.3757 C   0  0  0  0  0  0  0  0  0  0  0  0
   -1.0006   -3.7947   -2.2825 C   0  0  0  0  0  0  0  0  0  0  0  0
    1.1610   -5.9913   -4.9082 Cl  0  0  0  0  0  0  0  0  0  0  0  0
   -0.0181   -3.3566    1.1954 C   0  0  0  0  0  0  0  0  0  0  0  0
   -0.3009   -2.8136    2.4591 C   0  0  0  0  0  0  0  0  0  0  0  0
    0.1013   -3.4488    3.5855 N   0  0  0  0  0  0  0  0  0  0  0  0
    0.7764   -4.6266    3.5261 C   0  0  0  0  0  0  0  0  0  0  0  0
    1.0184   -5.2057    2.3272 N   0  0  0  0  0  0  0  0  0  0  0  0
    0.6321   -4.6151    1.1785 C   0  0  0  0  0  0  0  0  0  0  0  0
   -1.8147   -2.4032   -0.0406 O   0  0  0  0  0  0  0  0  0  0  0  0
   -2.1600    0.2704   -0.0984 Cl  0  0  0  0  0  0  0  0  0  0  0  0
    3.4757    0.0955    0.1399 H   0  0  0  0  0  0  0  0  0  0  0  0
    2.2458    2.2263    0.0002 H   0  0  0  0  0  0  0  0  0  0  0  0
   -0.2139    2.2269   -0.0628 H   0  0  0  0  0  0  0  0  0  0  0  0
    2.3241   -1.9625    0.2207 H   0  0  0  0  0  0  0  0  0  0  0  0
    2.1304   -3.4930   -0.9795 H   0  0  0  0  0  0  0  0  0  0  0  0
    2.7091   -4.7815   -2.8267 H   0  0  0  0  0  0  0  0  0  0  0  0
   -1.4025   -4.9520   -4.0519 H   0  0  0  0  0  0  0  0  0  0  0  0
   -2.0504   -3.5643   -2.1594 H   0  0  0  0  0  0  0  0  0  0  0  0
   -0.8323   -1.8726    2.5401 H   0  0  0  0  0  0  0  0  0  0  0  0
    1.1200   -5.1076    4.4253 H   0  0  0  0  0  0  0  0  0  0  0  0
    0.8534   -5.1466    0.2698 H   0  0  0  0  0  0  0  0  0  0  0  0
   -2.2537   -3.2876    0.0702 H   0  0  0  0  0  0  0  0  0  0  0  0
  1  2  2  0  0  0  0
  1  6  1  0  0  0  0
  1 23  1  0  0  0  0
  2  3  1  0  0  0  0
  2 24  1  0  0  0  0
  3  4  2  0  0  0  0
  3 25  1  0  0  0  0
  4  5  1  0  0  0  0
  4 22  1  0  0  0  0
  5  6  2  0  0  0  0
  5  7  1  0  0  0  0
  6 26  1  0  0  0  0
  7  8  1  0  0  0  0
  7 15  1  0  0  0  0
  7 21  1  0  0  0  0
  8  9  2  0  0  0  0
  8 13  1  0  0  0  0
  9 10  1  0  0  0  0
  9 27  1  0  0  0  0
 10 11  2  0  0  0  0
 10 28  1  0  0  0  0
 11 12  1  0  0  0  0
 11 14  1  0  0  0  0
 12 13  2  0  0  0  0
 12 29  1  0  0  0  0
 13 30  1  0  0  0  0
 15 16  2  0  0  0  0
 15 20  1  0  0  0  0
 16 17  1  0  0  0  0
 16 31  1  0  0  0  0
 17 18  2  0  0  0  0
 18 19  1  0  0  0  0
 18 32  1  0  0  0  0
 19 20  2  0  0  0  0
 20 33  1  0  0  0  0
 21 34  1  0  0  0  0
M  END
$$$$

 OpenBabel05152416213D

 32 32  0  0  0  0  0  0  0  0999 V2000
   -0.0403    0.3959    0.7635 C   0  0  0  0  0  0  0  0  0  0  0  0
   -0.0893   -1.2427    0.5422 C   0  0  0  0  0  0  0  0  0  0  0  0
    0.9096   -2.2687    0.7347 O   0  0  0  0  0  0  0  0  0  0  0  0
    2.6396   -2.2687    0.7347 P   0  0  0  0  0  0  0  0  0  0  0  0
    2.5020   -3.5116   -0.1627 O   0  0  0  0  0  0  0  0  0  0  0  0
    2.8776   -1.4258   -0.8546 O   0  0  0  0  0  0  0  0  0  0  0  0
    2.0174   -0.3548   -1.0385 C   0  0  0  0  0  0  0  0  0  0  0  0
    0.8562   -0.7119   -2.0887 C   0  0  0  0  0  0  0  0  0  0  0  0
    4.3696   -2.2687    0.7347 O   0  0  0  0  0  0  0  0  0  0  0  0
    5.1178   -3.3766    1.0793 C   0  0  0  0  0  0  0  0  0  0  0  0
    6.2828   -3.2006    1.8433 C   0  0  0  0  0  0  0  0  0  0  0  0
    7.0857   -4.3003    2.2026 C   0  0  0  0  0  0  0  0  0  0  0  0
    6.7292   -5.6095    1.8112 C   0  0  0  0  0  0  0  0  0  0  0  0
    5.5738   -5.7901    1.0662 C   0  0  0  0  0  0  0  0  0  0  0  0
    4.7849   -4.7122    0.7072 C   0  0  0  0  0  0  0  0  0  0  0  0
    7.5303   -6.7358    2.1797 N   0  3  0  0  0  0  0  0  0  0  0  0
    8.5034   -6.6084    2.8260 O   0  0  0  0  0  0  0  0  0  0  0  0
    7.1345   -7.9567    1.8349 O   0  5  0  0  0  0  0  0  0  0  0  0
   -0.3162    0.7516    1.7647 H   0  0  0  0  0  0  0  0  0  0  0  0
   -0.5145    0.9137   -0.1127 H   0  0  0  0  0  0  0  0  0  0  0  0
    0.7864    1.1412    0.7202 H   0  0  0  0  0  0  0  0  0  0  0  0
   -1.1350   -1.5841    0.6809 H   0  0  0  0  0  0  0  0  0  0  0  0
   -0.3588   -1.6282   -0.3948 H   0  0  0  0  0  0  0  0  0  0  0  0
    2.0487   -0.0196   -0.0176 H   0  0  0  0  0  0  0  0  0  0  0  0
    2.4353    0.6197   -1.3392 H   0  0  0  0  0  0  0  0  0  0  0  0
    0.4095   -1.7422   -2.1750 H   0  0  0  0  0  0  0  0  0  0  0  0
   -0.0754   -0.1072   -1.9646 H   0  0  0  0  0  0  0  0  0  0  0  0
    1.2366   -0.5784   -3.0964 H   0  0  0  0  0  0  0  0  0  0  0  0
    6.5664   -2.2104    2.1763 H   0  0  0  0  0  0  0  0  0  0  0  0
    7.9791   -4.1332    2.7858 H   0  0  0  0  0  0  0  0  0  0  0  0
    5.2642   -6.7792    0.7435 H   0  0  0  0  0  0  0  0  0  0  0  0
    3.9481   -5.0208    0.1266 H   0  0  0  0  0  0  0  0  0  0  0  0
  1  2  1  0  0  0  0
  1 19  1  0  0  0  0
  1 20  1  0  0  0  0
  1 21  1  0  0  0  0
  2  3  1  0  0  0  0
  2 22  1  0  0  0  0
  2 23  1  0  0  0  0
  3  4  1  0  0  0  0
  4  5  2  0  0  0  0
  4  6  1  0  0  0  0
  4  9  1  0  0  0  0
  6  7  1  0  0  0  0
  7  8  1  0  0  0  0
  7 24  1  0  0  0  0
  7 25  1  0  0  0  0
  8 26  1  0  0  0  0
  8 27  1  0  0  0  0
  8 28  1  0  0  0  0
  9 10  1  0  0  0  0
 10 11  2  0  0  0  0
 10 15  1  0  0  0  0
 11 12  1  0  0  0  0
 11 29  1  0  0  0  0
 12 13  2  0  0  0  0
 12 30  1  0  0  0  0
 13 14  1  0  0  0  0
 13 16  1  0  0  0  0
 14 15  2  0  0  0  0
 14 31  1  0  0  0  0
 15 32  1  0  0  0  0
 16 17  2  0  0  0  0
 16 18  1  0  0  0  0
M  CHG  2  16   1  18  -1
M  END
$$$$

 OpenBabel05152416213D

 41 42  0  0  0  0  0  0  0  0999 V2000
    0.9689   -0.0582   -0.0935 C   0  0  0  0  0  0  0  0  0  0  0  0
    0.5090    1.3259    0.3013 C   0  0  0  0  0  0  0  0  0  0  0  0
    0.9462    2.3488   -0.6771 N   0  0  0  0  0  0  0  0  0  0  0  0
   -0.1486    2.8444   -1.5874 C   0  0  0  0  0  0  0  0  0  0  0  0
   -0.1462    4.2425   -2.0789 C   0  0  0  0  0  0  0  0  0  0  0  0
    2.2896    2.6985   -0.6650 C   0  0  0  0  0  0  0  0  0  0  0  0
    3.0966    2.0584    0.0027 O   0  0  0  0  0  0  0  0  0  0  0  0
    2.8730    3.9130   -1.3694 C   0  0  0  0  0  0  0  0  0  0  0  0
    2.6501    3.6808   -2.9583 C   0  0  0  0  0  0  0  0  0  0  0  0
    2.4941    5.1536   -0.6233 O   0  0  0  0  0  0  0  0  0  0  0  0
    1.2173    5.6658   -0.1396 C   0  0  0  0  0  0  0  0  0  0  0  0
    0.3217    4.8072    0.7378 C   0  0  0  0  0  0  0  0  0  0  0  0
   -1.1667    4.9514    0.6189 C   0  0  0  0  0  0  0  0  0  0  0  0
   -1.7395    5.9996   -0.1995 C   0  0  0  0  0  0  0  0  0  0  0  0
   -0.8779    6.9993   -0.8727 C   0  0  0  0  0  0  0  0  0  0  0  0
   -1.4465    8.0424   -1.6666 C   0  0  0  0  0  0  0  0  0  0  0  0
   -0.6445    8.9900   -2.3545 C   0  0  0  0  0  0  0  0  0  0  0  0
    0.7418    8.8089   -2.3948 C   0  0  0  0  0  0  0  0  0  0  0  0
    1.3545    7.7317   -1.7244 C   0  0  0  0  0  0  0  0  0  0  0  0
    0.6043    6.8093   -0.8401 C   0  0  0  0  0  0  0  0  0  0  0  0
    0.5810   -0.2809   -1.1080 H   0  0  0  0  0  0  0  0  0  0  0  0
    0.5644   -0.7907    0.6390 H   0  0  0  0  0  0  0  0  0  0  0  0
    2.0721   -0.1211   -0.0775 H   0  0  0  0  0  0  0  0  0  0  0  0
   -0.5946    1.2982    0.3768 H   0  0  0  0  0  0  0  0  0  0  0  0
    0.8832    1.5541    1.3225 H   0  0  0  0  0  0  0  0  0  0  0  0
   -0.0526    2.4529   -2.5871 H   0  0  0  0  0  0  0  0  0  0  0  0
   -1.1609    2.6176   -1.1891 H   0  0  0  0  0  0  0  0  0  0  0  0
    0.7777    4.6726   -2.1095 H   0  0  0  0  0  0  0  0  0  0  0  0
   -0.8696    4.8151   -2.6379 H   0  0  0  0  0  0  0  0  0  0  0  0
   -0.3814    4.7160   -1.3735 H   0  0  0  0  0  0  0  0  0  0  0  0
    4.0078    3.8151   -1.3672 H   0  0  0  0  0  0  0  0  0  0  0  0
    1.6552    3.5701   -3.3989 H   0  0  0  0  0  0  0  0  0  0  0  0
    3.0755    4.4559   -3.6178 H   0  0  0  0  0  0  0  0  0  0  0  0
    2.9834    2.6615   -3.2778 H   0  0  0  0  0  0  0  0  0  0  0  0
    0.7144    3.9039    1.2356 H   0  0  0  0  0  0  0  0  0  0  0  0
   -1.8547    4.0976    0.9330 H   0  0  0  0  0  0  0  0  0  0  0  0
   -2.8382    5.9825   -0.4795 H   0  0  0  0  0  0  0  0  0  0  0  0
   -2.5318    8.2017   -1.7917 H   0  0  0  0  0  0  0  0  0  0  0  0
   -1.0892    9.8468   -2.8761 H   0  0  0  0  0  0  0  0  0  0  0  0
    1.3313    9.5370   -2.9840 H   0  0  0  0  0  0  0  0  0  0  0  0
    2.4368    7.6540   -1.9050 H   0  0  0  0  0  0  0  0  0  0  0  0
  1  2  1  0  0  0  0
  1 21  1  0  0  0  0
  1 22  1  0  0  0  0
  1 23  1  0  0  0  0
  2  3  1  0  0  0  0
  2 24  1  0  0  0  0
  2 25  1  0  0  0  0
  3  4  1  0  0  0  0
  3  6  1  0  0  0  0
  4  5  1  0  0  0  0
  4 26  1  0  0  0  0
  4 27  1  0  0  0  0
  5 28  1  0  0  0  0
  5 29  1  0  0  0  0
  5 30  1  0  0  0  0
  6  7  2  0  0  0  0
  6  8  1  0  0  0  0
  8  9  1  0  0  0  0
  8 10  1  0  0  0  0
  8 31  1  0  0  0  0
  9 32  1  0  0  0  0
  9 33  1  0  0  0  0
  9 34  1  0  0  0  0
 10 11  1  0  0  0  0
 11 12  2  0  0  0  0
 11 20  1  0  0  0  0
 12 13  1  0  0  0  0
 12 35  1  0  0  0  0
 13 14  2  0  0  0  0
 13 36  1  0  0  0  0
 14 15  1  0  0  0  0
 14 37  1  0  0  0  0
 15 16  2  0  0  0  0
 15 20  1  0  0  0  0
 16 17  1  0  0  0  0
 16 38  1  0  0  0  0
 17 18  2  0  0  0  0
 17 39  1  0  0  0  0
 18 19  1  0  0  0  0
 18 40  1  0  0  0  0
 19 20  2  0  0  0  0
 19 41  1  0  0  0  0
M  END
$$$$

 OpenBabel05152416213D

 26 25  0  0  0  0  0  0  0  0999 V2000
    0.8183   -0.7475    0.2869 C   0  0  0  0  0  0  0  0  0  0  0  0
    0.1819   -0.2654   -1.0450 C   0  0  0  0  0  0  0  0  0  0  0  0
    0.9353   -0.3573   -2.2853 O   0  0  0  0  0  0  0  0  0  0  0  0
    2.6653   -0.3573   -2.2853 P   0  0  0  0  0  0  0  0  0  0  0  0
    2.6255    0.2296   -3.9617 S   0  0  0  0  0  0  0  0  0  0  0  0
    2.8993    1.3508   -1.7210 O   0  0  0  0  0  0  0  0  0  0  0  0
    1.7387    2.0621   -1.2326 C   0  0  0  0  0  0  0  0  0  0  0  0
    0.7964    2.4775   -2.4013 C   0  0  0  0  0  0  0  0  0  0  0  0
    4.3953   -0.3573   -2.2853 O   0  0  0  0  0  0  0  0  0  0  0  0
    4.8385   -1.6722   -2.6927 C   0  0  0  0  0  0  0  0  0  0  0  0
    4.4307   -2.8737   -1.7670 C   0  0  0  0  0  0  0  0  0  0  0  0
    2.6937   -3.3396   -1.7252 Cl  0  0  0  0  0  0  0  0  0  0  0  0
    5.2584   -4.3562   -2.3146 Cl  0  0  0  0  0  0  0  0  0  0  0  0
    4.9570   -2.5278   -0.1051 Cl  0  0  0  0  0  0  0  0  0  0  0  0
    4.5410   -2.0619   -4.4334 Cl  0  0  0  0  0  0  0  0  0  0  0  0
    0.5039   -1.7789    0.5186 H   0  0  0  0  0  0  0  0  0  0  0  0
    0.4492   -0.0959    1.1190 H   0  0  0  0  0  0  0  0  0  0  0  0
    1.9240   -0.6533    0.3343 H   0  0  0  0  0  0  0  0  0  0  0  0
   -0.8635   -0.5962   -1.1753 H   0  0  0  0  0  0  0  0  0  0  0  0
   -0.2162    0.7474   -0.8855 H   0  0  0  0  0  0  0  0  0  0  0  0
    1.4697    1.5672   -0.3059 H   0  0  0  0  0  0  0  0  0  0  0  0
    1.9569    2.9512   -0.6249 H   0  0  0  0  0  0  0  0  0  0  0  0
    0.5969    1.7175   -3.1818 H   0  0  0  0  0  0  0  0  0  0  0  0
   -0.2248    2.7636   -2.0534 H   0  0  0  0  0  0  0  0  0  0  0  0
    1.2449    3.3288   -2.9436 H   0  0  0  0  0  0  0  0  0  0  0  0
    5.9446   -1.6289   -2.6520 H   0  0  0  0  0  0  0  0  0  0  0  0
  1  2  1  0  0  0  0
  1 16  1  0  0  0  0
  1 17  1  0  0  0  0
  1 18  1  0  0  0  0
  2  3  1  0  0  0  0
  2 19  1  0  0  0  0
  2 20  1  0  0  0  0
  3  4  1  0  0  0  0
  4  5  2  0  0  0  0
  4  6  1  0  0  0  0
  4  9  1  0  0  0  0
  6  7  1  0  0  0  0
  7  8  1  0  0  0  0
  7 21  1  0  0  0  0
  7 22  1  0  0  0  0
  8 23  1  0  0  0  0
  8 24  1  0  0  0  0
  8 25  1  0  0  0  0
  9 10  1  0  0  0  0
 10 11  1  0  0  0  0
 10 15  1  0  0  0  0
 10 26  1  0  0  0  0
 11 12  1  0  0  0  0
 11 13  1  0  0  0  0
 11 14  1  0  0  0  0
M  END
$$$$

 OpenBabel05152416213D

 31 31  0  0  0  0  0  0  0  0999 V2000
    1.5814    0.0767   -0.0597 C   0  0  0  0  0  0  0  0  0  0  0  0
    1.2033    0.7308   -1.4299 C   0  0  0  0  0  0  0  0  0  0  0  0
    1.1565   -0.3350   -2.5932 C   0  0  0  0  0  0  0  0  0  0  0  0
    0.4752   -1.7316   -2.3331 C   0  0  0  0  0  0  0  0  0  0  0  0
    1.2935   -2.8423   -2.6937 C   0  0  0  0  0  0  0  0  0  0  0  0
    0.9047   -4.1950   -2.4911 C   0  0  0  0  0  0  0  0  0  0  0  0
   -0.3446   -4.4351   -1.8593 C   0  0  0  0  0  0  0  0  0  0  0  0
   -1.1508   -3.3917   -1.5355 C   0  0  0  0  0  0  0  0  0  0  0  0
   -0.8522   -2.0579   -1.7666 C   0  0  0  0  0  0  0  0  0  0  0  0
   -1.9166   -1.3153   -1.3579 O   0  0  0  0  0  0  0  0  0  0  0  0
   -2.4722   -0.1267   -1.7728 C   0  0  0  0  0  0  0  0  0  0  0  0
   -1.1613   -6.1190   -1.3618 Br  0  0  0  0  0  0  0  0  0  0  0  0
    1.7336   -5.1835   -2.9043 O   0  0  0  0  0  0  0  0  0  0  0  0
    1.4588   -6.5369   -2.7991 C   0  0  0  0  0  0  0  0  0  0  0  0
   -0.0645    1.3511   -1.2658 N   0  0  0  0  0  0  0  0  0  0  0  0
    1.0150   -0.8740    0.1044 H   0  0  0  0  0  0  0  0  0  0  0  0
    1.2512    0.7141    0.7976 H   0  0  0  0  0  0  0  0  0  0  0  0
    2.6571   -0.1244   -0.0049 H   0  0  0  0  0  0  0  0  0  0  0  0
    1.8546    1.5940   -1.6752 H   0  0  0  0  0  0  0  0  0  0  0  0
    0.7691    0.1030   -3.5407 H   0  0  0  0  0  0  0  0  0  0  0  0
    2.2439   -0.5089   -2.7814 H   0  0  0  0  0  0  0  0  0  0  0  0
    2.2674   -2.6761   -3.1590 H   0  0  0  0  0  0  0  0  0  0  0  0
   -2.1043   -3.6188   -1.0724 H   0  0  0  0  0  0  0  0  0  0  0  0
   -2.3352    0.3575   -0.7690 H   0  0  0  0  0  0  0  0  0  0  0  0
   -1.9182    0.2381   -2.6558 H   0  0  0  0  0  0  0  0  0  0  0  0
   -2.9803    0.7041   -1.2321 H   0  0  0  0  0  0  0  0  0  0  0  0
    1.3807   -6.8020   -1.7240 H   0  0  0  0  0  0  0  0  0  0  0  0
    0.5200   -6.7660   -3.3530 H   0  0  0  0  0  0  0  0  0  0  0  0
    2.2580   -7.1590   -3.2350 H   0  0  0  0  0  0  0  0  0  0  0  0
   -0.4685    1.7195   -2.1637 H   0  0  0  0  0  0  0  0  0  0  0  0
   -0.4706    0.4774   -0.9982 H   0  0  0  0  0  0  0  0  0  0  0  0
  1  2  1  0  0  0  0
  1 16  1  0  0  0  0
  1 17  1  0  0  0  0
  1 18  1  0  0  0  0
  2  3  1  0  0  0  0
  2 15  1  0  0  0  0
  2 19  1  0  0  0  0
  3  4  1  0  0  0  0
  3 20  1  0  0  0  0
  3 21  1  0  0  0  0
  4  5  2  0  0  0  0
  4  9  1  0  0  0  0
  5  6  1  0  0  0  0
  5 22  1  0  0  0  0
  6  7  2  0  0  0  0
  6 13  1  0  0  0  0
  7  8  1  0  0  0  0
  7 12  1  0  0  0  0
  8  9  2  0  0  0  0
  8 23  1  0  0  0  0
  9 10  1  0  0  0  0
 10 11  1  0  0  0  0
 11 24  1  0  0  0  0
 11 25  1  0  0  0  0
 11 26  1  0  0  0  0
 13 14  1  0  0  0  0
 14 27  1  0  0  0  0
 14 28  1  0  0  0  0
 14 29  1  0  0  0  0
 15 30  1  0  0  0  0
 15 31  1  0  0  0  0
M  END
$$$$

 OpenBabel05152416213D

 43 44  0  0  0  0  0  0  0  0999 V2000
    0.8693    0.0596   -0.0324 C   0  0  0  0  0  0  0  0  0  0  0  0
    0.4443   -0.4755   -1.3999 C   0  0  0  0  0  0  0  0  0  0  0  0
    0.9536   -1.7450   -1.6324 O   0  0  0  0  0  0  0  0  0  0  0  0
    2.2809   -2.0282   -1.7456 C   0  0  0  0  0  0  0  0  0  0  0  0
    3.1178   -1.1400   -1.6636 O   0  0  0  0  0  0  0  0  0  0  0  0
    2.7491   -3.4495   -1.9327 C   0  0  0  0  0  0  0  0  0  0  0  0
    2.3211   -4.2603   -0.8923 O   0  0  0  0  0  0  0  0  0  0  0  0
    2.5861   -3.9860    0.4137 C   0  0  0  0  0  0  0  0  0  0  0  0
    3.2764   -3.0179    0.7002 O   0  0  0  0  0  0  0  0  0  0  0  0
    2.1908   -4.9071    1.5048 C   0  0  0  0  0  0  0  0  0  0  0  0
    1.8525   -4.4663    2.8123 C   0  0  0  0  0  0  0  0  0  0  0  0
    1.7057   -5.4281    3.8336 C   0  0  0  0  0  0  0  0  0  0  0  0
    1.8362   -6.7909    3.5626 C   0  0  0  0  0  0  0  0  0  0  0  0
    2.0859   -7.2259    2.2589 C   0  0  0  0  0  0  0  0  0  0  0  0
    2.2440   -6.2693    1.2371 C   0  0  0  0  0  0  0  0  0  0  0  0
    2.1647   -8.5587    2.0010 O   0  0  0  0  0  0  0  0  0  0  0  0
    2.5460   -9.0667    0.8026 C   0  0  0  0  0  0  0  0  0  0  0  0
    1.6908   -9.9471    0.1365 C   0  0  0  0  0  0  0  0  0  0  0  0
    2.0178  -10.4050   -1.1418 C   0  0  0  0  0  0  0  0  0  0  0  0
    3.1875   -9.9621   -1.7818 C   0  0  0  0  0  0  0  0  0  0  0  0
    4.0612   -9.1005   -1.0983 C   0  0  0  0  0  0  0  0  0  0  0  0
    3.7518   -8.6695    0.1906 C   0  0  0  0  0  0  0  0  0  0  0  0
    3.4465  -10.3761   -3.2050 C   0  0  0  0  0  0  0  0  0  0  0  0
    3.5675  -11.7499   -3.2866 F   0  0  0  0  0  0  0  0  0  0  0  0
    2.3771   -9.9670   -3.9823 F   0  0  0  0  0  0  0  0  0  0  0  0
    4.5965   -9.7916   -3.7073 F   0  0  0  0  0  0  0  0  0  0  0  0
    0.1511  -10.3963    0.8540 Cl  0  0  0  0  0  0  0  0  0  0  0  0
    1.5789   -3.0894    3.1082 N   0  3  0  0  0  0  0  0  0  0  0  0
    1.2076   -2.7759    4.1930 O   0  0  0  0  0  0  0  0  0  0  0  0
    1.4081   -2.2267    2.1317 O   0  5  0  0  0  0  0  0  0  0  0  0
    0.4536   -0.5926    0.7527 H   0  0  0  0  0  0  0  0  0  0  0  0
    0.4733    1.0820    0.1261 H   0  0  0  0  0  0  0  0  0  0  0  0
    1.9730    0.1035    0.0671 H   0  0  0  0  0  0  0  0  0  0  0  0
   -0.6664   -0.5194   -1.4210 H   0  0  0  0  0  0  0  0  0  0  0  0
    0.7817    0.2167   -2.1998 H   0  0  0  0  0  0  0  0  0  0  0  0
    2.3621   -3.8400   -2.8952 H   0  0  0  0  0  0  0  0  0  0  0  0
    3.8617   -3.4665   -1.9712 H   0  0  0  0  0  0  0  0  0  0  0  0
    1.4789   -5.1202    4.8459 H   0  0  0  0  0  0  0  0  0  0  0  0
    1.7186   -7.5053    4.3687 H   0  0  0  0  0  0  0  0  0  0  0  0
    2.4506   -6.5714    0.2231 H   0  0  0  0  0  0  0  0  0  0  0  0
    1.3355  -11.0690   -1.6560 H   0  0  0  0  0  0  0  0  0  0  0  0
    4.9667   -8.7343   -1.5659 H   0  0  0  0  0  0  0  0  0  0  0  0
    4.4234   -7.9807    0.6912 H   0  0  0  0  0  0  0  0  0  0  0  0
  1  2  1  0  0  0  0
  1 31  1  0  0  0  0
  1 32  1  0  0  0  0
  1 33  1  0  0  0  0
  2  3  1  0  0  0  0
  2 34  1  0  0  0  0
  2 35  1  0  0  0  0
  3  4  1  0  0  0  0
  4  5  2  0  0  0  0
  4  6  1  0  0  0  0
  6  7  1  0  0  0  0
  6 36  1  0  0  0  0
  6 37  1  0  0  0  0
  7  8  1  0  0  0  0
  8  9  2  0  0  0  0
  8 10  1  0  0  0  0
 10 11  2  0  0  0  0
 10 15  1  0  0  0  0
 11 12  1  0  0  0  0
 11 28  1  0  0  0  0
 12 13  2  0  0  0  0
 12 38  1  0  0  0  0
 13 14  1  0  0  0  0
 13 39  1  0  0  0  0
 14 15  2  0  0  0  0
 14 16  1  0  0  0  0
 15 40  1  0  0  0  0
 16 17  1  0  0  0  0
 17 18  2  0  0  0  0
 17 22  1  0  0  0  0
 18 19  1  0  0  0  0
 18 27  1  0  0  0  0
 19 20  2  0  0  0  0
 19 41  1  0  0  0  0
 20 21  1  0  0  0  0
 20 23  1  0  0  0  0
 21 22  2  0  0  0  0
 21 42  1  0  0  0  0
 22 43  1  0  0  0  0
 23 24  1  0  0  0  0
 23 25  1  0  0  0  0
 23 26  1  0  0  0  0
 28 29  2  0  0  0  0
 28 30  1  0  0  0  0
M  CHG  2  28   1  30  -1
M  END
$$$$

 OpenBabel05152416213D

 19 19  0  0  0  0  0  0  0  0999 V2000
    0.2564   -1.2197   -0.0024 C   0  0  0  0  0  0  0  0  0  0  0  0
   -1.1410   -1.2142    0.0009 C   0  0  0  0  0  0  0  0  0  0  0  0
   -1.8319    0.0024    0.0051 C   0  0  0  0  0  0  0  0  0  0  0  0
   -1.1253    1.2095    0.0038 C   0  0  0  0  0  0  0  0  0  0  0  0
    0.2668    1.2058   -0.0010 C   0  0  0  0  0  0  0  0  0  0  0  0
    0.9681   -0.0081   -0.0028 C   0  0  0  0  0  0  0  0  0  0  0  0
    2.3808   -0.0080   -0.0031 N   0  0  0  0  0  0  0  0  0  0  0  0
   -3.6141    0.0389    0.0120 S   0  0  0  0  0  0  0  0  0  0  0  0
   -4.2561   -0.6631   -1.1945 O   0  0  0  0  0  0  0  0  0  0  0  0
   -4.2320   -0.6845    1.2182 O   0  0  0  0  0  0  0  0  0  0  0  0
   -4.3111    1.6603    0.0415 N   0  0  0  0  0  0  0  0  0  0  0  0
    0.7854   -2.1645   -0.0042 H   0  0  0  0  0  0  0  0  0  0  0  0
   -1.6841   -2.1515    0.0012 H   0  0  0  0  0  0  0  0  0  0  0  0
   -1.6519    2.1547    0.0072 H   0  0  0  0  0  0  0  0  0  0  0  0
    0.7982    2.1493   -0.0022 H   0  0  0  0  0  0  0  0  0  0  0  0
    2.9063   -0.8942   -0.0003 H   0  0  0  0  0  0  0  0  0  0  0  0
    2.9042    0.8804   -0.0008 H   0  0  0  0  0  0  0  0  0  0  0  0
   -3.9805    2.1555   -0.8175 H   0  0  0  0  0  0  0  0  0  0  0  0
   -5.3497    1.5802   -0.0058 H   0  0  0  0  0  0  0  0  0  0  0  0
  1  2  2  0  0  0  0
  1  6  1  0  0  0  0
  1 12  1  0  0  0  0
  2  3  1  0  0  0  0
  2 13  1  0  0  0  0
  3  4  2  0  0  0  0
  3  8  1  0  0  0  0
  4  5  1  0  0  0  0
  4 14  1  0  0  0  0
  5  6  2  0  0  0  0
  5 15  1  0  0  0  0
  6  7  1  0  0  0  0
  7 16  1  0  0  0  0
  7 17  1  0  0  0  0
  8  9  2  0  0  0  0
  8 10  2  0  0  0  0
  8 11  1  0  0  0  0
 11 18  1  0  0  0  0
 11 19  1  0  0  0  0
M  END
$$$$

 OpenBabel05152416213D

 43 44  0  0  0  0  0  0  0  0999 V2000
    0.8450   -0.1321    0.3676 C   0  0  0  0  0  0  0  0  0  0  0  0
    0.3289   -1.4599   -0.2719 C   0  0  0  0  0  0  0  0  0  0  0  0
    0.6598   -2.5637    0.7481 C   0  0  0  0  0  0  0  0  0  0  0  0
   -1.2007   -1.4201   -0.3406 C   0  0  0  0  0  0  0  0  0  0  0  0
    0.9190   -1.7938   -1.7230 C   0  0  0  0  0  0  0  0  0  0  0  0
    0.5414   -0.6460   -2.8218 C   0  0  0  0  0  0  0  0  0  0  0  0
    1.0708    0.8563   -2.7494 C   0  0  0  0  0  0  0  0  0  0  0  0
    2.5946    1.0275   -2.7531 C   0  0  0  0  0  0  0  0  0  0  0  0
    3.3804   -0.0397   -3.1364 C   0  0  0  0  0  0  0  0  0  0  0  0
    4.7166   -0.1468   -2.7971 C   0  0  0  0  0  0  0  0  0  0  0  0
    5.3797    0.9693   -2.3377 C   0  0  0  0  0  0  0  0  0  0  0  0
    4.6698    2.1746   -2.1929 C   0  0  0  0  0  0  0  0  0  0  0  0
    3.2599    2.1895   -2.3353 C   0  0  0  0  0  0  0  0  0  0  0  0
    7.1005    0.8347   -2.0311 Cl  0  0  0  0  0  0  0  0  0  0  0  0
    2.4578   -2.0906   -1.6189 C   0  0  0  0  0  0  0  0  0  0  0  0
    2.9424   -3.1338   -0.7574 N   0  0  0  0  0  0  0  0  0  0  0  0
    3.7991   -2.9570    0.2722 C   0  0  0  0  0  0  0  0  0  0  0  0
    3.9990   -4.1326    0.8853 N   0  0  0  0  0  0  0  0  0  0  0  0
    3.2669   -5.0002    0.1490 C   0  0  0  0  0  0  0  0  0  0  0  0
    2.6335   -4.3919   -0.8678 N   0  0  0  0  0  0  0  0  0  0  0  0
    0.3233   -2.9911   -2.1866 O   0  0  0  0  0  0  0  0  0  0  0  0
    0.5598   -0.0797    1.4335 H   0  0  0  0  0  0  0  0  0  0  0  0
    0.3482    0.7596   -0.0130 H   0  0  0  0  0  0  0  0  0  0  0  0
    1.9498   -0.0039    0.3298 H   0  0  0  0  0  0  0  0  0  0  0  0
    0.1549   -2.4036    1.7141 H   0  0  0  0  0  0  0  0  0  0  0  0
    0.4382   -3.5782    0.3508 H   0  0  0  0  0  0  0  0  0  0  0  0
    1.6828   -2.4695    1.0801 H   0  0  0  0  0  0  0  0  0  0  0  0
   -1.5615   -0.6032   -0.9900 H   0  0  0  0  0  0  0  0  0  0  0  0
   -1.5890   -2.3916   -0.7184 H   0  0  0  0  0  0  0  0  0  0  0  0
   -1.6081   -1.2414    0.6733 H   0  0  0  0  0  0  0  0  0  0  0  0
    0.8114   -1.0086   -3.8344 H   0  0  0  0  0  0  0  0  0  0  0  0
   -0.5653   -0.5929   -2.8870 H   0  0  0  0  0  0  0  0  0  0  0  0
    0.6293    1.4816   -3.5449 H   0  0  0  0  0  0  0  0  0  0  0  0
    0.6493    1.3388   -1.8653 H   0  0  0  0  0  0  0  0  0  0  0  0
    2.9099   -0.8462   -3.6112 H   0  0  0  0  0  0  0  0  0  0  0  0
    5.2158   -1.1075   -2.9023 H   0  0  0  0  0  0  0  0  0  0  0  0
    5.2046    3.0698   -1.9252 H   0  0  0  0  0  0  0  0  0  0  0  0
    2.6935    3.0846   -2.1213 H   0  0  0  0  0  0  0  0  0  0  0  0
    2.8247   -2.4740   -2.5918 H   0  0  0  0  0  0  0  0  0  0  0  0
    2.8946   -1.1801   -1.2024 H   0  0  0  0  0  0  0  0  0  0  0  0
    4.1877   -1.9958    0.5995 H   0  0  0  0  0  0  0  0  0  0  0  0
    3.1590   -6.0437    0.3538 H   0  0  0  0  0  0  0  0  0  0  0  0
    0.7026   -3.2041   -3.0859 H   0  0  0  0  0  0  0  0  0  0  0  0
  1  2  1  0  0  0  0
  1 22  1  0  0  0  0
  1 23  1  0  0  0  0
  1 24  1  0  0  0  0
  2  3  1  0  0  0  0
  2  4  1  0  0  0  0
  2  5  1  0  0  0  0
  3 25  1  0  0  0  0
  3 26  1  0  0  0  0
  3 27  1  0  0  0  0
  4 28  1  0  0  0  0
  4 29  1  0  0  0  0
  4 30  1  0  0  0  0
  5  6  1  0  0  0  0
  5 15  1  0  0  0  0
  5 21  1  0  0  0  0
  6  7  1  0  0  0  0
  6 31  1  0  0  0  0
  6 32  1  0  0  0  0
  7  8  1  0  0  0  0
  7 33  1  0  0  0  0
  7 34  1  0  0  0  0
  8  9  2  0  0  0  0
  8 13  1  0  0  0  0
  9 10  1  0  0  0  0
  9 35  1  0  0  0  0
 10 11  2  0  0  0  0
 10 36  1  0  0  0  0
 11 12  1  0  0  0  0
 11 14  1  0  0  0  0
 12 13  2  0  0  0  0
 12 37  1  0  0  0  0
 13 38  1  0  0  0  0
 15 16  1  0  0  0  0
 15 39  1  0  0  0  0
 15 40  1  0  0  0  0
 16 17  1  0  0  0  0
 16 20  1  0  0  0  0
 17 18  2  0  0  0  0
 17 41  1  0  0  0  0
 18 19  1  0  0  0  0
 19 20  2  0  0  0  0
 19 42  1  0  0  0  0
 21 43  1  0  0  0  0
M  END
$$$$

 OpenBabel05152416213D

 31 32  0  0  0  0  0  0  0  0999 V2000
    2.4011    0.0398    0.0357 C   0  0  0  0  0  0  0  0  0  0  0  0
    1.6335    1.2143   -0.0023 C   0  0  0  0  0  0  0  0  0  0  0  0
    0.2222    1.1548   -0.0747 C   0  0  0  0  0  0  0  0  0  0  0  0
   -0.3935   -0.1366   -0.1023 C   0  0  0  0  0  0  0  0  0  0  0  0
    0.3858   -1.2792   -0.0369 C   0  0  0  0  0  0  0  0  0  0  0  0
    1.7729   -1.2140    0.0188 C   0  0  0  0  0  0  0  0  0  0  0  0
    2.5328   -2.5094    0.0241 C   0  0  0  0  0  0  0  0  0  0  0  0
    2.1723   -3.2472    1.1370 F   0  0  0  0  0  0  0  0  0  0  0  0
    2.2075   -3.2257   -1.1157 F   0  0  0  0  0  0  0  0  0  0  0  0
    3.8986   -2.3014    0.0428 F   0  0  0  0  0  0  0  0  0  0  0  0
   -2.1080   -0.5014   -0.3073 Cl  0  0  0  0  0  0  0  0  0  0  0  0
   -0.4726    2.3306   -0.1764 O   0  0  0  0  0  0  0  0  0  0  0  0
   -1.8162    2.4818   -0.0389 C   0  0  0  0  0  0  0  0  0  0  0  0
   -2.5438    3.1517   -1.0265 C   0  0  0  0  0  0  0  0  0  0  0  0
   -3.9544    3.2821   -0.9444 C   0  0  0  0  0  0  0  0  0  0  0  0
   -4.6494    2.6081    0.1198 C   0  0  0  0  0  0  0  0  0  0  0  0
   -3.8774    1.9952    1.1271 C   0  0  0  0  0  0  0  0  0  0  0  0
   -2.4886    1.9686    1.0719 C   0  0  0  0  0  0  0  0  0  0  0  0
   -6.0821    2.4806    0.2189 N   0  3  0  0  0  0  0  0  0  0  0  0
   -6.7830    2.6485   -0.7360 O   0  0  0  0  0  0  0  0  0  0  0  0
   -6.6140    1.8733    1.2548 O   0  5  0  0  0  0  0  0  0  0  0  0
   -4.6231    4.1721   -1.9470 C   0  0  0  0  0  0  0  0  0  0  0  0
   -3.9804    4.6549   -2.8686 O   0  0  0  0  0  0  0  0  0  0  0  0
   -5.8835    4.6064   -1.7438 O   0  0  0  0  0  0  0  0  0  0  0  0
    3.4822    0.1075    0.0646 H   0  0  0  0  0  0  0  0  0  0  0  0
    2.1540    2.1673    0.0012 H   0  0  0  0  0  0  0  0  0  0  0  0
   -0.1076   -2.2421   -0.0615 H   0  0  0  0  0  0  0  0  0  0  0  0
   -1.9933    3.5719   -1.8619 H   0  0  0  0  0  0  0  0  0  0  0  0
   -4.3533    1.5006    1.9613 H   0  0  0  0  0  0  0  0  0  0  0  0
   -1.9364    1.4749    1.8613 H   0  0  0  0  0  0  0  0  0  0  0  0
   -6.3552    5.1951   -2.3455 H   0  0  0  0  0  0  0  0  0  0  0  0
  1  2  2  0  0  0  0
  1  6  1  0  0  0  0
  1 25  1  0  0  0  0
  2  3  1  0  0  0  0
  2 26  1  0  0  0  0
  3  4  2  0  0  0  0
  3 12  1  0  0  0  0
  4  5  1  0  0  0  0
  4 11  1  0  0  0  0
  5  6  2  0  0  0  0
  5 27  1  0  0  0  0
  6  7  1  0  0  0  0
  7  8  1  0  0  0  0
  7  9  1  0  0  0  0
  7 10  1  0  0  0  0
 12 13  1  0  0  0  0
 13 14  2  0  0  0  0
 13 18  1  0  0  0  0
 14 15  1  0  0  0  0
 14 28  1  0  0  0  0
 15 16  2  0  0  0  0
 15 22  1  0  0  0  0
 16 17  1  0  0  0  0
 16 19  1  0  0  0  0
 17 18  2  0  0  0  0
 17 29  1  0  0  0  0
 18 30  1  0  0  0  0
 19 20  2  0  0  0  0
 19 21  1  0  0  0  0
 22 23  2  0  0  0  0
 22 24  1  0  0  0  0
 24 31  1  0  0  0  0
M  CHG  2  19   1  21  -1
M  END
$$$$

 OpenBabel05152416213D

 41 41  0  0  0  0  0  0  0  0999 V2000
    1.0456   -0.2861   -0.8142 C   0  0  0  0  0  0  0  0  0  0  0  0
    0.5559    0.5169   -1.9146 C   0  0  0  0  0  0  0  0  0  0  0  0
    0.6225    2.0016   -1.5228 C   0  0  0  0  0  0  0  0  0  0  0  0
    0.3732    2.7371   -2.7052 C   0  0  0  0  0  0  0  0  0  0  0  0
    0.5365    4.0836   -2.7848 C   0  0  0  0  0  0  0  0  0  0  0  0
    0.9855    4.7589   -1.6862 C   0  0  0  0  0  0  0  0  0  0  0  0
    1.2259    4.1447   -0.4220 C   0  0  0  0  0  0  0  0  0  0  0  0
    0.9950    2.6641   -0.2070 C   0  0  0  0  0  0  0  0  0  0  0  0
    1.3551    1.9062    1.1138 N   0  0  0  0  0  0  0  0  0  0  0  0
    2.0597    2.6568    2.1424 C   0  0  0  0  0  0  0  0  0  0  0  0
    1.1359    2.8542    3.3721 C   0  0  0  0  0  0  0  0  0  0  0  0
    3.5441    2.3790    2.3657 C   0  0  0  0  0  0  0  0  0  0  0  0
    4.3697    2.6099    1.2218 O   0  0  0  0  0  0  0  0  0  0  0  0
    4.0934    1.7362    0.1447 C   0  0  0  0  0  0  0  0  0  0  0  0
    0.9024    0.6958    1.6963 C   0  0  0  0  0  0  0  0  0  0  0  0
   -0.2930    0.3881    1.6158 O   0  0  0  0  0  0  0  0  0  0  0  0
    1.6636   -0.2485    2.6827 C   0  0  0  0  0  0  0  0  0  0  0  0
    3.3598   -0.8367    2.5043 Cl  0  0  0  0  0  0  0  0  0  0  0  0
    1.7484    5.3021    0.4821 C   0  0  0  0  0  0  0  0  0  0  0  0
    1.0497   -1.3617   -0.6239 H   0  0  0  0  0  0  0  0  0  0  0  0
    0.1536   -0.0258   -0.3268 H   0  0  0  0  0  0  0  0  0  0  0  0
    2.0409    0.1185   -0.5221 H   0  0  0  0  0  0  0  0  0  0  0  0
   -0.4984    0.2601   -2.2199 H   0  0  0  0  0  0  0  0  0  0  0  0
    1.2235    0.2521   -2.7600 H   0  0  0  0  0  0  0  0  0  0  0  0
    0.0849    2.2385   -3.6318 H   0  0  0  0  0  0  0  0  0  0  0  0
    0.3582    4.6033   -3.7270 H   0  0  0  0  0  0  0  0  0  0  0  0
    1.1601    5.8241   -1.8458 H   0  0  0  0  0  0  0  0  0  0  0  0
    2.1913    3.5540    1.8024 H   0  0  0  0  0  0  0  0  0  0  0  0
    0.9181    1.9187    3.9108 H   0  0  0  0  0  0  0  0  0  0  0  0
    1.5607    3.5634    4.0998 H   0  0  0  0  0  0  0  0  0  0  0  0
    0.1498    3.2335    3.0033 H   0  0  0  0  0  0  0  0  0  0  0  0
    3.8799    3.1189    3.1262 H   0  0  0  0  0  0  0  0  0  0  0  0
    3.7502    1.4662    2.8770 H   0  0  0  0  0  0  0  0  0  0  0  0
    4.0103    0.6776    0.4494 H   0  0  0  0  0  0  0  0  0  0  0  0
    3.2425    2.0814   -0.4304 H   0  0  0  0  0  0  0  0  0  0  0  0
    4.8665    1.8207   -0.6387 H   0  0  0  0  0  0  0  0  0  0  0  0
    1.2856   -0.2060    3.7205 H   0  0  0  0  0  0  0  0  0  0  0  0
    1.3232   -1.2528    2.3614 H   0  0  0  0  0  0  0  0  0  0  0  0
    2.7210    5.6450    0.0474 H   0  0  0  0  0  0  0  0  0  0  0  0
    0.9711    6.0791    0.5067 H   0  0  0  0  0  0  0  0  0  0  0  0
    1.9937    5.3772    1.5524 H   0  0  0  0  0  0  0  0  0  0  0  0
  1  2  1  0  0  0  0
  1 20  1  0  0  0  0
  1 21  1  0  0  0  0
  1 22  1  0  0  0  0
  2  3  1  0  0  0  0
  2 23  1  0  0  0  0
  2 24  1  0  0  0  0
  3  4  2  0  0  0  0
  3  8  1  0  0  0  0
  4  5  1  0  0  0  0
  4 25  1  0  0  0  0
  5  6  2  0  0  0  0
  5 26  1  0  0  0  0
  6  7  1  0  0  0  0
  6 27  1  0  0  0  0
  7  8  2  0  0  0  0
  7 19  1  0  0  0  0
  8  9  1  0  0  0  0
  9 10  1  0  0  0  0
  9 15  1  0  0  0  0
 10 11  1  0  0  0  0
 10 12  1  0  0  0  0
 10 28  1  0  0  0  0
 11 29  1  0  0  0  0
 11 30  1  0  0  0  0
 11 31  1  0  0  0  0
 12 13  1  0  0  0  0
 12 32  1  0  0  0  0
 12 33  1  0  0  0  0
 13 14  1  0  0  0  0
 14 34  1  0  0  0  0
 14 35  1  0  0  0  0
 14 36  1  0  0  0  0
 15 16  2  0  0  0  0
 15 17  1  0  0  0  0
 17 18  1  0  0  0  0
 17 37  1  0  0  0  0
 17 38  1  0  0  0  0
 19 39  1  0  0  0  0
 19 40  1  0  0  0  0
 19 41  1  0  0  0  0
M  END
$$$$

 OpenBabel05152416213D

 48 48  0  0  0  0  0  0  0  0999 V2000
    0.9802    0.0798   -0.0485 C   0  0  0  0  0  0  0  0  0  0  0  0
    0.6115   -0.7557   -1.2727 C   0  0  0  0  0  0  0  0  0  0  0  0
    1.2391   -2.1672   -1.1681 C   0  0  0  0  0  0  0  0  0  0  0  0
    0.7962   -2.9142    0.0897 C   0  0  0  0  0  0  0  0  0  0  0  0
   -0.6807   -3.0302    0.0810 C   0  0  0  0  0  0  0  0  0  0  0  0
   -1.1793   -3.8845   -1.1411 C   0  0  0  0  0  0  0  0  0  0  0  0
   -0.9538   -5.3488   -0.9654 C   0  0  0  0  0  0  0  0  0  0  0  0
   -1.7182   -5.8412    0.3010 C   0  0  0  0  0  0  0  0  0  0  0  0
   -3.2870   -5.7910    0.2729 C   0  0  0  0  0  0  0  0  0  0  0  0
   -3.8184   -6.8749    0.2755 O   0  0  0  0  0  0  0  0  0  0  0  0
   -4.1313   -4.6623    0.2636 N   0  0  0  0  0  0  0  0  0  0  0  0
   -3.7988   -3.2431    0.3306 C   0  0  0  0  0  0  0  0  0  0  0  0
   -3.9019   -2.4709   -1.0265 C   0  0  0  0  0  0  0  0  0  0  0  0
   -3.5702   -1.0978   -1.1533 C   0  0  0  0  0  0  0  0  0  0  0  0
   -3.5846   -0.4376   -2.4174 C   0  0  0  0  0  0  0  0  0  0  0  0
   -3.8810   -1.2134   -3.5890 C   0  0  0  0  0  0  0  0  0  0  0  0
   -4.1484   -2.5648   -3.4525 C   0  0  0  0  0  0  0  0  0  0  0  0
   -4.1897   -3.1786   -2.2122 C   0  0  0  0  0  0  0  0  0  0  0  0
   -3.9353   -0.7654   -4.8678 O   0  0  0  0  0  0  0  0  0  0  0  0
   -3.3200    0.9023   -2.4208 O   0  0  0  0  0  0  0  0  0  0  0  0
   -3.4160    1.7676   -3.4910 C   0  0  0  0  0  0  0  0  0  0  0  0
    0.5342   -0.3285    0.8845 H   0  0  0  0  0  0  0  0  0  0  0  0
    0.5972    1.1101   -0.1539 H   0  0  0  0  0  0  0  0  0  0  0  0
    2.0847    0.0812    0.0517 H   0  0  0  0  0  0  0  0  0  0  0  0
   -0.4975   -0.7682   -1.3893 H   0  0  0  0  0  0  0  0  0  0  0  0
    0.9857   -0.2777   -2.1946 H   0  0  0  0  0  0  0  0  0  0  0  0
    0.9882   -2.7434   -2.0785 H   0  0  0  0  0  0  0  0  0  0  0  0
    2.3363   -2.1139   -1.1468 H   0  0  0  0  0  0  0  0  0  0  0  0
    1.2215   -3.9320    0.1640 H   0  0  0  0  0  0  0  0  0  0  0  0
    1.1008   -2.3916    1.0198 H   0  0  0  0  0  0  0  0  0  0  0  0
   -0.9089   -3.4158    1.0918 H   0  0  0  0  0  0  0  0  0  0  0  0
   -1.1712   -2.0331    0.0971 H   0  0  0  0  0  0  0  0  0  0  0  0
   -2.2025   -3.9654   -1.2754 H   0  0  0  0  0  0  0  0  0  0  0  0
   -0.9267   -3.4526   -2.1257 H   0  0  0  0  0  0  0  0  0  0  0  0
   -1.3353   -5.8913   -1.8627 H   0  0  0  0  0  0  0  0  0  0  0  0
    0.1386   -5.5291   -0.9249 H   0  0  0  0  0  0  0  0  0  0  0  0
   -1.4068   -6.9058    0.3819 H   0  0  0  0  0  0  0  0  0  0  0  0
   -1.3253   -5.3939    1.2272 H   0  0  0  0  0  0  0  0  0  0  0  0
   -5.1462   -4.8594    0.2276 H   0  0  0  0  0  0  0  0  0  0  0  0
   -4.1992   -2.6959    1.2060 H   0  0  0  0  0  0  0  0  0  0  0  0
   -2.8428   -3.2215    0.7001 H   0  0  0  0  0  0  0  0  0  0  0  0
   -3.2939   -0.5323   -0.2681 H   0  0  0  0  0  0  0  0  0  0  0  0
   -4.3286   -3.1560   -4.3414 H   0  0  0  0  0  0  0  0  0  0  0  0
   -4.3747   -4.2407   -2.1975 H   0  0  0  0  0  0  0  0  0  0  0  0
   -3.8687    0.1199   -5.2267 H   0  0  0  0  0  0  0  0  0  0  0  0
   -2.6433    1.5242   -4.2516 H   0  0  0  0  0  0  0  0  0  0  0  0
   -4.4510    1.7283   -3.8996 H   0  0  0  0  0  0  0  0  0  0  0  0
   -3.2366    2.8118   -3.1724 H   0  0  0  0  0  0  0  0  0  0  0  0
  1  2  1  0  0  0  0
  1 22  1  0  0  0  0
  1 23  1  0  0  0  0
  1 24  1  0  0  0  0
  2  3  1  0  0  0  0
  2 25  1  0  0  0  0
  2 26  1  0  0  0  0
  3  4  1  0  0  0  0
  3 27  1  0  0  0  0
  3 28  1  0  0  0  0
  4  5  1  0  0  0  0
  4 29  1  0  0  0  0
  4 30  1  0  0  0  0
  5  6  1  0  0  0  0
  5 31  1  0  0  0  0
  5 32  1  0  0  0  0
  6  7  1  0  0  0  0
  6 33  1  0  0  0  0
  6 34  1  0  0  0  0
  7  8  1  0  0  0  0
  7 35  1  0  0  0  0
  7 36  1  0  0  0  0
  8  9  1  0  0  0  0
  8 37  1  0  0  0  0
  8 38  1  0  0  0  0
  9 10  2  0  0  0  0
  9 11  1  0  0  0  0
 11 12  1  0  0  0  0
 11 39  1  0  0  0  0
 12 13  1  0  0  0  0
 12 40  1  0  0  0  0
 12 41  1  0  0  0  0
 13 14  2  0  0  0  0
 13 18  1  0  0  0  0
 14 15  1  0  0  0  0
 14 42  1  0  0  0  0
 15 16  2  0  0  0  0
 15 20  1  0  0  0  0
 16 17  1  0  0  0  0
 16 19  1  0  0  0  0
 17 18  2  0  0  0  0
 17 43  1  0  0  0  0
 18 44  1  0  0  0  0
 19 45  1  0  0  0  0
 20 21  1  0  0  0  0
 21 46  1  0  0  0  0
 21 47  1  0  0  0  0
 21 48  1  0  0  0  0
M  END
$$$$

 OpenBabel05152416213D

 36 40  0  0  0  0  0  0  0  0999 V2000
   -5.0944   -0.7002   -0.0925 C   0  0  0  0  0  0  0  0  0  0  0  0
   -5.0967    0.6886    0.0693 C   0  0  0  0  0  0  0  0  0  0  0  0
   -3.8931    1.3849    0.1630 C   0  0  0  0  0  0  0  0  0  0  0  0
   -2.6777    0.6943    0.0922 C   0  0  0  0  0  0  0  0  0  0  0  0
   -1.4764    1.3806    0.1811 C   0  0  0  0  0  0  0  0  0  0  0  0
   -0.2346    0.7109    0.0968 C   0  0  0  0  0  0  0  0  0  0  0  0
    0.9892    1.4218    0.1090 C   0  0  0  0  0  0  0  0  0  0  0  0
    1.0511    2.8407    0.2306 C   0  0  0  0  0  0  0  0  0  0  0  0
    2.2434    3.5265    0.0524 C   0  0  0  0  0  0  0  0  0  0  0  0
    3.4013    2.8342   -0.2596 C   0  0  0  0  0  0  0  0  0  0  0  0
    3.3960    1.4418   -0.2622 C   0  0  0  0  0  0  0  0  0  0  0  0
    2.2093    0.7129   -0.0315 C   0  0  0  0  0  0  0  0  0  0  0  0
    2.2103   -0.7087    0.0081 C   0  0  0  0  0  0  0  0  0  0  0  0
    3.4107   -1.4336    0.2051 C   0  0  0  0  0  0  0  0  0  0  0  0
    3.4178   -2.8262    0.2091 C   0  0  0  0  0  0  0  0  0  0  0  0
    2.2536   -3.5227   -0.0614 C   0  0  0  0  0  0  0  0  0  0  0  0
    1.0539   -2.8408   -0.2124 C   0  0  0  0  0  0  0  0  0  0  0  0
    0.9948   -1.4214   -0.1000 C   0  0  0  0  0  0  0  0  0  0  0  0
   -0.2362   -0.7132   -0.0751 C   0  0  0  0  0  0  0  0  0  0  0  0
   -1.4719   -1.3845   -0.1584 C   0  0  0  0  0  0  0  0  0  0  0  0
   -2.6771   -0.7002   -0.0794 C   0  0  0  0  0  0  0  0  0  0  0  0
   -3.8875   -1.3936   -0.1673 C   0  0  0  0  0  0  0  0  0  0  0  0
   -6.0253   -1.2419   -0.1621 H   0  0  0  0  0  0  0  0  0  0  0  0
   -6.0304    1.2277    0.1228 H   0  0  0  0  0  0  0  0  0  0  0  0
   -3.9056    2.4620    0.2883 H   0  0  0  0  0  0  0  0  0  0  0  0
   -1.5499    2.4473    0.2996 H   0  0  0  0  0  0  0  0  0  0  0  0
    0.1970    3.4615    0.4327 H   0  0  0  0  0  0  0  0  0  0  0  0
    2.2556    4.6075    0.1163 H   0  0  0  0  0  0  0  0  0  0  0  0
    4.3082    3.3765   -0.4870 H   0  0  0  0  0  0  0  0  0  0  0  0
    4.3221    0.9492   -0.5166 H   0  0  0  0  0  0  0  0  0  0  0  0
    4.3429   -0.9389    0.4266 H   0  0  0  0  0  0  0  0  0  0  0  0
    4.3331   -3.3665    0.4102 H   0  0  0  0  0  0  0  0  0  0  0  0
    2.2646   -4.6041   -0.1171 H   0  0  0  0  0  0  0  0  0  0  0  0
    0.1990   -3.4660   -0.3861 H   0  0  0  0  0  0  0  0  0  0  0  0
   -1.5457   -2.4504   -0.2812 H   0  0  0  0  0  0  0  0  0  0  0  0
   -3.8962   -2.4705   -0.2951 H   0  0  0  0  0  0  0  0  0  0  0  0
  1  2  2  0  0  0  0
  1 22  1  0  0  0  0
  1 23  1  0  0  0  0
  2  3  1  0  0  0  0
  2 24  1  0  0  0  0
  3  4  2  0  0  0  0
  3 25  1  0  0  0  0
  4  5  1  0  0  0  0
  4 21  1  0  0  0  0
  5  6  2  0  0  0  0
  5 26  1  0  0  0  0
  6  7  1  0  0  0  0
  6 19  1  0  0  0  0
  7  8  2  0  0  0  0
  7 12  1  0  0  0  0
  8  9  1  0  0  0  0
  8 27  1  0  0  0  0
  9 10  2  0  0  0  0
  9 28  1  0  0  0  0
 10 11  1  0  0  0  0
 10 29  1  0  0  0  0
 11 12  2  0  0  0  0
 11 30  1  0  0  0  0
 12 13  1  0  0  0  0
 13 14  2  0  0  0  0
 13 18  1  0  0  0  0
 14 15  1  0  0  0  0
 14 31  1  0  0  0  0
 15 16  2  0  0  0  0
 15 32  1  0  0  0  0
 16 17  1  0  0  0  0
 16 33  1  0  0  0  0
 17 18  2  0  0  0  0
 17 34  1  0  0  0  0
 18 19  1  0  0  0  0
 19 20  2  0  0  0  0
 20 21  1  0  0  0  0
 20 35  1  0  0  0  0
 21 22  2  0  0  0  0
 22 36  1  0  0  0  0
M  END
$$$$

 OpenBabel05152416213D

 46 49  0  0  1  0  0  0  0  0999 V2000
    0.9192    0.1131    0.2563 C   0  0  0  0  0  0  0  0  0  0  0  0
    0.2298   -0.8401   -0.8609 C   0  0  2  0  0  0  0  0  0  0  0  0
   -0.6141   -0.0112   -1.8293 C   0  0  0  0  0  0  0  0  0  0  0  0
    0.1192    1.2041   -2.3789 C   0  0  0  0  0  0  0  0  0  0  0  0
    1.3180    0.7118   -3.1959 C   0  0  1  0  0  0  0  0  0  0  0  0
    2.2113   -0.3141   -2.2604 C   0  0  2  0  0  0  0  0  0  0  0  0
    1.4249   -1.6425   -1.3311 C   0  0  2  0  0  0  0  0  0  0  0  0
    1.2935   -2.6855    0.1432 C   0  0  0  0  0  0  0  0  0  0  0  0
   -0.1221   -2.4490    0.7946 C   0  0  0  0  0  0  0  0  0  0  0  0
   -0.7395   -1.8790   -0.3472 C   0  0  0  0  0  0  0  0  0  0  0  0
   -1.4503   -2.5640   -1.0822 O   0  0  0  0  0  0  0  0  0  0  0  0
    3.3776   -0.7289   -3.1430 C   0  0  0  0  0  0  0  0  0  0  0  0
    3.7123    0.1095   -4.4048 C   0  0  0  0  0  0  0  0  0  0  0  0
    4.9745    0.0061   -4.8214 C   0  0  0  0  0  0  0  0  0  0  0  0
    2.6404    0.9480   -5.2016 C   0  0  0  0  0  0  0  0  0  0  0  0
    2.9173    1.6427   -6.3840 C   0  0  0  0  0  0  0  0  0  0  0  0
    4.1510    2.3568   -6.3141 C   0  0  0  0  0  0  0  0  0  0  0  0
    4.6976    2.8263   -7.3438 O   0  0  0  0  0  0  0  0  0  0  0  0
    4.4967    2.8183   -4.9538 C   0  0  0  0  0  0  0  0  0  0  0  0
    3.4793    2.7279   -3.9268 C   0  0  0  0  0  0  0  0  0  0  0  0
    2.0535    1.8912   -4.1719 C   0  0  2  0  0  0  0  0  0  0  0  0
    0.8675    2.8716   -4.6763 C   0  0  0  0  0  0  0  0  0  0  0  0
    0.9738   -0.1730    1.3048 H   0  0  0  0  0  0  0  0  0  0  0  0
    0.5516    1.1291    0.2663 H   0  0  0  0  0  0  0  0  0  0  0  0
    2.0373    0.1069    0.2219 H   0  0  0  0  0  0  0  0  0  0  0  0
   -1.0574   -0.6322   -2.6555 H   0  0  0  0  0  0  0  0  0  0  0  0
   -1.4718    0.3378   -1.2211 H   0  0  0  0  0  0  0  0  0  0  0  0
   -0.6690    1.7592   -2.9243 H   0  0  0  0  0  0  0  0  0  0  0  0
    0.4710    1.9045   -1.6166 H   0  0  0  0  0  0  0  0  0  0  0  0
    0.7966    0.0808   -3.9585 H   0  0  0  0  0  0  0  0  0  0  0  0
    2.6611    0.4620   -1.6229 H   0  0  0  0  0  0  0  0  0  0  0  0
    1.2702   -2.4053   -2.1355 H   0  0  0  0  0  0  0  0  0  0  0  0
    1.0597   -3.7743   -0.0017 H   0  0  0  0  0  0  0  0  0  0  0  0
    1.9491   -3.2464    0.8731 H   0  0  0  0  0  0  0  0  0  0  0  0
   -0.7133   -3.0868    1.4928 H   0  0  0  0  0  0  0  0  0  0  0  0
   -0.2227   -1.6521    1.5081 H   0  0  0  0  0  0  0  0  0  0  0  0
    3.0809   -1.6512   -3.6848 H   0  0  0  0  0  0  0  0  0  0  0  0
    4.2318   -0.9836   -2.4840 H   0  0  0  0  0  0  0  0  0  0  0  0
    5.2741    0.2723   -5.8038 H   0  0  0  0  0  0  0  0  0  0  0  0
    5.7526   -0.0406   -4.0529 H   0  0  0  0  0  0  0  0  0  0  0  0
    2.2221    2.3611   -6.8205 H   0  0  0  0  0  0  0  0  0  0  0  0
    5.5444    3.1341   -4.8519 H   0  0  0  0  0  0  0  0  0  0  0  0
    3.7980    3.0598   -2.9488 H   0  0  0  0  0  0  0  0  0  0  0  0
   -0.0691    2.3018   -4.8514 H   0  0  0  0  0  0  0  0  0  0  0  0
    0.6134    3.6805   -3.9424 H   0  0  0  0  0  0  0  0  0  0  0  0
    0.9566    3.4369   -5.6253 H   0  0  0  0  0  0  0  0  0  0  0  0
  1 23  1  0  0  0  0
  1 24  1  0  0  0  0
  1 25  1  0  0  0  0
  2  3  1  0  0  0  0
  2  7  1  0  0  0  0
  2 10  1  0  0  0  0
  2  1  1  6  0  0  0
  3  4  1  0  0  0  0
  3 26  1  0  0  0  0
  3 27  1  0  0  0  0
  4  5  1  0  0  0  0
  4 28  1  0  0  0  0
  4 29  1  0  0  0  0
  5  6  1  0  0  0  0
  5 21  1  0  0  0  0
  5 30  1  1  0  0  0
  6  7  1  0  0  0  0
  6 12  1  0  0  0  0
  6 31  1  6  0  0  0
  7  8  1  0  0  0  0
  7 32  1  1  0  0  0
  8  9  1  0  0  0  0
  8 33  1  0  0  0  0
  8 34  1  0  0  0  0
  9 10  1  0  0  0  0
  9 35  1  0  0  0  0
  9 36  1  0  0  0  0
 10 11  2  0  0  0  0
 12 13  1  0  0  0  0
 12 37  1  0  0  0  0
 12 38  1  0  0  0  0
 13 15  1  0  0  0  0
 13 14  2  0  0  0  0
 14 39  1  0  0  0  0
 14 40  1  0  0  0  0
 15 16  2  0  0  0  0
 15 21  1  0  0  0  0
 16 17  1  0  0  0  0
 16 41  1  0  0  0  0
 17 19  1  0  0  0  0
 17 18  2  0  0  0  0
 19 20  2  0  0  0  0
 19 42  1  0  0  0  0
 20 21  1  0  0  0  0
 20 43  1  0  0  0  0
 21 22  1  6  0  0  0
 22 44  1  0  0  0  0
 22 45  1  0  0  0  0
 22 46  1  0  0  0  0
M  END
$$$$

 OpenBabel05152416213D

 29 30  0  0  0  0  0  0  0  0999 V2000
   -2.4096   -1.4140    0.0973 C   0  0  0  0  0  0  0  0  0  0  0  0
   -3.6027   -0.6976    0.0083 C   0  0  0  0  0  0  0  0  0  0  0  0
   -3.5974    0.7027    0.0440 C   0  0  0  0  0  0  0  0  0  0  0  0
   -2.3752    1.3904    0.1657 C   0  0  0  0  0  0  0  0  0  0  0  0
   -1.1741    0.6750    0.2885 C   0  0  0  0  0  0  0  0  0  0  0  0
    0.0184    1.3363    0.4058 N   0  0  0  0  0  0  0  0  0  0  0  0
    1.2054    0.6753    0.4353 C   0  0  0  0  0  0  0  0  0  0  0  0
    1.2348   -0.7431    0.3849 C   0  0  0  0  0  0  0  0  0  0  0  0
    2.4640   -1.4144    0.2910 C   0  0  0  0  0  0  0  0  0  0  0  0
    3.6557   -0.6831    0.1989 C   0  0  0  0  0  0  0  0  0  0  0  0
    3.6361    0.7201    0.2315 C   0  0  0  0  0  0  0  0  0  0  0  0
    2.4138    1.3963    0.3720 C   0  0  0  0  0  0  0  0  0  0  0  0
    4.8428    1.4489    0.0614 N   0  0  0  0  0  0  0  0  0  0  0  0
    0.0176   -1.4444    0.3189 C   0  0  0  0  0  0  0  0  0  0  0  0
   -1.1881   -0.7377    0.2481 C   0  0  0  0  0  0  0  0  0  0  0  0
   -4.8211    1.4127   -0.0287 N   0  0  0  0  0  0  0  0  0  0  0  0
    0.7489    0.0951   -2.5621 Cl  0  0  0  0  0  0  0  0  0  0  0  0
   -2.4408   -2.4951    0.0442 H   0  0  0  0  0  0  0  0  0  0  0  0
   -4.5370   -1.2363   -0.0941 H   0  0  0  0  0  0  0  0  0  0  0  0
   -2.3708    2.4746    0.1610 H   0  0  0  0  0  0  0  0  0  0  0  0
    2.5072   -2.4954    0.2101 H   0  0  0  0  0  0  0  0  0  0  0  0
    4.5918   -1.2080    0.0537 H   0  0  0  0  0  0  0  0  0  0  0  0
    2.3979    2.4800    0.3504 H   0  0  0  0  0  0  0  0  0  0  0  0
    5.7410    0.9589   -0.0629 H   0  0  0  0  0  0  0  0  0  0  0  0
    4.8367    2.4785    0.0083 H   0  0  0  0  0  0  0  0  0  0  0  0
    0.0081   -2.5275    0.2442 H   0  0  0  0  0  0  0  0  0  0  0  0
   -4.8410    2.4420    0.0045 H   0  0  0  0  0  0  0  0  0  0  0  0
   -5.7187    0.9041   -0.0404 H   0  0  0  0  0  0  0  0  0  0  0  0
    1.9832    0.1787   -1.9533 H   0  0  0  0  0  0  0  0  0  0  0  0
  1  2  2  0  0  0  0
  1 15  1  0  0  0  0
  1 18  1  0  0  0  0
  2  3  1  0  0  0  0
  2 19  1  0  0  0  0
  3  4  2  0  0  0  0
  3 16  1  0  0  0  0
  4  5  1  0  0  0  0
  4 20  1  0  0  0  0
  5  6  2  0  0  0  0
  5 15  1  0  0  0  0
  6  7  1  0  0  0  0
  7  8  2  0  0  0  0
  7 12  1  0  0  0  0
  8  9  1  0  0  0  0
  8 14  1  0  0  0  0
  9 10  2  0  0  0  0
  9 21  1  0  0  0  0
 10 11  1  0  0  0  0
 10 22  1  0  0  0  0
 11 12  2  0  0  0  0
 11 13  1  0  0  0  0
 12 23  1  0  0  0  0
 13 24  1  0  0  0  0
 13 25  1  0  0  0  0
 14 15  2  0  0  0  0
 14 26  1  0  0  0  0
 16 27  1  0  0  0  0
 16 28  1  0  0  0  0
 17 29  1  0  0  0  0
M  END
$$$$

 OpenBabel05152416213D

 25 26  0  0  0  0  0  0  0  0999 V2000
    1.3884   -0.2437    0.0221 C   0  0  0  0  0  0  0  0  0  0  0  0
    0.9205    1.0684    0.0254 C   0  0  0  0  0  0  0  0  0  0  0  0
   -0.4481    1.3249    0.0038 C   0  0  0  0  0  0  0  0  0  0  0  0
   -1.3816    0.2671   -0.0280 C   0  0  0  0  0  0  0  0  0  0  0  0
   -0.8964   -1.0568   -0.0160 C   0  0  0  0  0  0  0  0  0  0  0  0
    0.4827   -1.3067    0.0077 C   0  0  0  0  0  0  0  0  0  0  0  0
   -2.8527    0.5089   -0.0920 C   0  0  0  0  0  0  0  0  0  0  0  0
   -3.3951    1.7288   -0.2962 C   0  0  0  0  0  0  0  0  0  0  0  0
   -4.8465    1.9621   -0.4205 C   0  0  0  0  0  0  0  0  0  0  0  0
   -5.7892    1.2055    0.2873 C   0  0  0  0  0  0  0  0  0  0  0  0
   -7.1485    1.4822    0.1314 C   0  0  0  0  0  0  0  0  0  0  0  0
   -7.5517    2.4605   -0.7284 N   0  0  0  0  0  0  0  0  0  0  0  0
   -6.6598    3.1995   -1.4328 C   0  0  0  0  0  0  0  0  0  0  0  0
   -5.2898    2.9805   -1.2790 C   0  0  0  0  0  0  0  0  0  0  0  0
    2.4537   -0.4318    0.0312 H   0  0  0  0  0  0  0  0  0  0  0  0
    1.6162    1.8966    0.0404 H   0  0  0  0  0  0  0  0  0  0  0  0
   -0.7490    2.3584    0.0127 H   0  0  0  0  0  0  0  0  0  0  0  0
   -1.5790   -1.8986   -0.0394 H   0  0  0  0  0  0  0  0  0  0  0  0
    0.8535   -2.3240    0.0081 H   0  0  0  0  0  0  0  0  0  0  0  0
   -3.5121   -0.3546   -0.0443 H   0  0  0  0  0  0  0  0  0  0  0  0
   -2.7728    2.5987   -0.4420 H   0  0  0  0  0  0  0  0  0  0  0  0
   -5.4785    0.4315    0.9787 H   0  0  0  0  0  0  0  0  0  0  0  0
   -7.8829    0.9241    0.6922 H   0  0  0  0  0  0  0  0  0  0  0  0
   -7.0102    3.9604   -2.1200 H   0  0  0  0  0  0  0  0  0  0  0  0
   -4.5836    3.5727   -1.8483 H   0  0  0  0  0  0  0  0  0  0  0  0
  1  2  2  0  0  0  0
  1  6  1  0  0  0  0
  1 15  1  0  0  0  0
  2  3  1  0  0  0  0
  2 16  1  0  0  0  0
  3  4  2  0  0  0  0
  3 17  1  0  0  0  0
  4  5  1  0  0  0  0
  4  7  1  0  0  0  0
  5  6  2  0  0  0  0
  5 18  1  0  0  0  0
  6 19  1  0  0  0  0
  7  8  2  0  0  0  0
  7 20  1  0  0  0  0
  8  9  1  0  0  0  0
  8 21  1  0  0  0  0
  9 10  2  0  0  0  0
  9 14  1  0  0  0  0
 10 11  1  0  0  0  0
 10 22  1  0  0  0  0
 11 12  2  0  0  0  0
 11 23  1  0  0  0  0
 12 13  1  0  0  0  0
 13 14  2  0  0  0  0
 13 24  1  0  0  0  0
 14 25  1  0  0  0  0
M  END
$$$$

 OpenBabel05152416213D

 60 63  0  0  1  0  0  0  0  0999 V2000
    4.0679    2.2382    4.0504 C   0  0  0  0  0  0  0  0  0  0  0  0
    2.8345    3.0276    3.8514 C   0  0  0  0  0  0  0  0  0  0  0  0
    2.5647    3.8524    4.7062 O   0  0  0  0  0  0  0  0  0  0  0  0
    1.9237    2.7437    2.8380 O   0  0  0  0  0  0  0  0  0  0  0  0
    1.3828    1.4878    2.4594 C   0  0  1  0  0  0  0  0  0  0  0  0
    1.5932    1.0505    0.9900 C   0  0  0  0  0  0  0  0  0  0  0  0
    3.0488    0.8604    0.7254 C   0  0  0  0  0  0  0  0  0  0  0  0
    3.6134   -0.2868    1.6090 C   0  0  2  0  0  0  0  0  0  0  0  0
    5.1310   -0.1081    1.5948 C   0  0  1  0  0  0  0  0  0  0  0  0
    5.7505   -0.3370    0.1741 C   0  0  0  0  0  0  0  0  0  0  0  0
    7.2339   -0.0682    0.1175 C   0  0  0  0  0  0  0  0  0  0  0  0
    8.0079   -0.9489    1.0710 C   0  0  1  0  0  0  0  0  0  0  0  0
    7.1250   -0.9489    2.5811 C   0  0  2  0  0  0  0  0  0  0  0  0
    5.6689   -1.0420    2.6307 C   0  0  2  0  0  0  0  0  0  0  0  0
    5.1380   -0.8215    4.1231 C   0  0  0  0  0  0  0  0  0  0  0  0
    3.6556   -1.1309    4.1614 C   0  0  0  0  0  0  0  0  0  0  0  0
    2.9867   -0.3276    3.0468 C   0  0  0  0  0  0  0  0  0  0  0  0
    1.9109    0.4236    3.3794 C   0  0  0  0  0  0  0  0  0  0  0  0
    7.7549    0.1371    3.1693 C   0  0  0  0  0  0  0  0  0  0  0  0
    8.8163   -1.0168    2.8741 C   0  0  0  0  0  0  0  0  0  0  0  0
    8.1828   -2.3280    1.4053 C   0  0  1  0  0  0  0  0  0  0  0  0
    6.9762   -3.5510    0.6268 C   0  0  0  0  0  0  0  0  0  0  0  0
    6.2392   -4.5641    0.2657 C   0  0  0  0  0  0  0  0  0  0  0  0
    9.2765   -2.9141    0.8574 O   0  0  0  0  0  0  0  0  0  0  0  0
    9.5537   -4.2081    1.1482 C   0  0  0  0  0  0  0  0  0  0  0  0
    9.3366   -5.0827    0.3623 O   0  0  0  0  0  0  0  0  0  0  0  0
   10.0273   -4.4365    2.5053 C   0  0  0  0  0  0  0  0  0  0  0  0
    9.6392   -0.5279    0.5853 C   0  0  0  0  0  0  0  0  0  0  0  0
    4.9682    2.7029    4.5011 H   0  0  0  0  0  0  0  0  0  0  0  0
    4.3458    1.9703    3.0502 H   0  0  0  0  0  0  0  0  0  0  0  0
    3.7889    1.4211    4.7245 H   0  0  0  0  0  0  0  0  0  0  0  0
    0.2843    1.5992    2.5175 H   0  0  0  0  0  0  0  0  0  0  0  0
    1.3377   -0.0297    0.9064 H   0  0  0  0  0  0  0  0  0  0  0  0
    0.6962    0.6942    0.4428 H   0  0  0  0  0  0  0  0  0  0  0  0
    3.2487    0.7089   -0.3525 H   0  0  0  0  0  0  0  0  0  0  0  0
    3.5226    1.8257    1.0017 H   0  0  0  0  0  0  0  0  0  0  0  0
    3.3966   -1.2957    1.1846 H   0  0  0  0  0  0  0  0  0  0  0  0
    5.4519    0.9048    1.8575 H   0  0  0  0  0  0  0  0  0  0  0  0
    5.5825   -1.3630   -0.1923 H   0  0  0  0  0  0  0  0  0  0  0  0
    5.3367    0.3948   -0.5356 H   0  0  0  0  0  0  0  0  0  0  0  0
    7.6517   -0.1373   -0.9035 H   0  0  0  0  0  0  0  0  0  0  0  0
    7.4061    1.0033    0.4179 H   0  0  0  0  0  0  0  0  0  0  0  0
    7.0582   -1.8728    3.4213 H   0  0  0  0  0  0  0  0  0  0  0  0
    5.4101   -2.0843    2.3322 H   0  0  0  0  0  0  0  0  0  0  0  0
    5.6383   -1.4563    4.9018 H   0  0  0  0  0  0  0  0  0  0  0  0
    5.3952    0.1779    4.5061 H   0  0  0  0  0  0  0  0  0  0  0  0
    3.5466   -2.2278    4.0552 H   0  0  0  0  0  0  0  0  0  0  0  0
    3.2767   -0.8573    5.1798 H   0  0  0  0  0  0  0  0  0  0  0  0
    1.5313    0.4128    4.3951 H   0  0  0  0  0  0  0  0  0  0  0  0
    7.6764    1.1028    2.5449 H   0  0  0  0  0  0  0  0  0  0  0  0
    7.5176    0.5307    4.2031 H   0  0  0  0  0  0  0  0  0  0  0  0
    9.7609   -0.3754    2.9562 H   0  0  0  0  0  0  0  0  0  0  0  0
    9.5760   -0.1439    2.9907 H   0  0  0  0  0  0  0  0  0  0  0  0
    5.6345   -5.3956   -0.0307 H   0  0  0  0  0  0  0  0  0  0  0  0
   10.8725   -3.7308    2.6011 H   0  0  0  0  0  0  0  0  0  0  0  0
    9.2043   -4.1610    3.1986 H   0  0  0  0  0  0  0  0  0  0  0  0
   10.3350   -5.4928    2.6115 H   0  0  0  0  0  0  0  0  0  0  0  0
   10.4739   -1.0102    1.2002 H   0  0  0  0  0  0  0  0  0  0  0  0
    9.9894   -1.0035   -0.3554 H   0  0  0  0  0  0  0  0  0  0  0  0
    9.9427    0.5382    0.6423 H   0  0  0  0  0  0  0  0  0  0  0  0
  1  2  1  0  0  0  0
  1 29  1  0  0  0  0
  1 30  1  0  0  0  0
  1 31  1  0  0  0  0
  2  3  2  0  0  0  0
  2  4  1  0  0  0  0
  5  6  1  0  0  0  0
  5 18  1  0  0  0  0
  5 32  1  1  0  0  0
  5  4  1  0  0  0  0
  6  7  1  0  0  0  0
  6 33  1  0  0  0  0
  6 34  1  0  0  0  0
  7  8  1  0  0  0  0
  7 35  1  0  0  0  0
  7 36  1  0  0  0  0
  8  9  1  0  0  0  0
  8 17  1  0  0  0  0
  8 37  1  1  0  0  0
  9 10  1  0  0  0  0
  9 14  1  0  0  0  0
  9 38  1  6  0  0  0
 10 11  1  0  0  0  0
 10 39  1  0  0  0  0
 10 40  1  0  0  0  0
 11 12  1  0  0  0  0
 11 41  1  0  0  0  0
 11 42  1  0  0  0  0
 12 13  1  0  0  0  0
 12 21  1  0  0  0  0
 12 28  1  1  0  0  0
 13 14  1  0  0  0  0
 13 19  1  0  0  0  0
 13 43  1  1  0  0  0
 14 15  1  0  0  0  0
 14 44  1  1  0  0  0
 15 16  1  0  0  0  0
 15 45  1  0  0  0  0
 15 46  1  0  0  0  0
 16 17  1  0  0  0  0
 16 47  1  0  0  0  0
 16 48  1  0  0  0  0
 17 18  2  0  0  0  0
 18 49  1  0  0  0  0
 19 20  1  0  0  0  0
 19 50  1  0  0  0  0
 19 51  1  0  0  0  0
 20 21  1  0  0  0  0
 20 52  1  0  0  0  0
 20 53  1  0  0  0  0
 21 24  1  0  0  0  0
 21 22  1  1  0  0  0
 22 23  3  0  0  0  0
 23 54  1  0  0  0  0
 24 25  1  0  0  0  0
 25 26  2  0  0  0  0
 25 27  1  0  0  0  0
 27 55  1  0  0  0  0
 27 56  1  0  0  0  0
 27 57  1  0  0  0  0
 28 58  1  0  0  0  0
 28 59  1  0  0  0  0
 28 60  1  0  0  0  0
M  END
$$$$

 OpenBabel05152416213D

128130  0  0  1  0  0  0  0  0999 V2000
   18.8584  -25.0845    7.4633 C   0  0  0  0  0  0  0  0  0  0  0  0
   19.3590  -25.4341    6.0683 C   0  0  0  0  0  0  0  0  0  0  0  0
   18.6265  -25.3250    4.8958 C   0  0  0  0  0  0  0  0  0  0  0  0
   19.2211  -25.8337    3.5498 C   0  0  0  0  0  0  0  0  0  0  0  0
   20.5210  -26.6648    3.7641 C   0  0  0  0  0  0  0  0  0  0  0  0
   21.4638  -25.9984    4.7327 C   0  0  0  0  0  0  0  0  0  0  0  0
   20.7923  -25.9422    6.0972 C   0  0  0  0  0  0  0  0  0  0  0  0
   18.2694  -26.8500    2.8365 C   0  0  0  0  0  0  0  0  0  0  0  0
   19.5399  -24.6087    2.6493 C   0  0  0  0  0  0  0  0  0  0  0  0
   17.2381  -24.7257    4.9239 C   0  0  0  0  0  0  0  0  0  0  0  0
   16.4522  -24.4714    3.8541 C   0  0  0  0  0  0  0  0  0  0  0  0
   15.0772  -23.9360    3.9474 C   0  0  0  0  0  0  0  0  0  0  0  0
   14.3498  -23.8754    2.7990 C   0  0  0  0  0  0  0  0  0  0  0  0
   12.9816  -23.3560    2.7625 C   0  0  0  0  0  0  0  0  0  0  0  0
   12.2101  -23.2604    1.6726 C   0  0  0  0  0  0  0  0  0  0  0  0
   10.8512  -22.6395    1.7875 C   0  0  0  0  0  0  0  0  0  0  0  0
   10.1388  -22.4622    0.6502 C   0  0  0  0  0  0  0  0  0  0  0  0
    8.8423  -21.7737    0.5483 C   0  0  0  0  0  0  0  0  0  0  0  0
    8.4299  -21.4811   -0.5703 O   0  0  0  0  0  0  0  0  0  0  0  0
    8.1787  -21.3517    1.6510 O   0  0  0  0  0  0  0  0  0  0  0  0
    6.9158  -20.9181    1.7671 C   0  0  0  0  0  0  0  0  0  0  0  0
    5.8444  -21.6195    1.1606 C   0  0  0  0  0  0  0  0  0  0  0  0
    4.5565  -21.0971    1.2524 C   0  0  0  0  0  0  0  0  0  0  0  0
    4.3126  -19.8620    1.9121 C   0  0  0  0  0  0  0  0  0  0  0  0
    5.3736  -19.2136    2.6004 C   0  0  0  0  0  0  0  0  0  0  0  0
    6.6699  -19.7563    2.5423 C   0  0  0  0  0  0  0  0  0  0  0  0
    7.8083  -19.0849    3.2987 C   0  0  0  0  0  0  0  0  0  0  0  0
    5.1072  -17.9431    3.3743 C   0  0  0  0  0  0  0  0  0  0  0  0
    3.0696  -19.3049    1.8496 O   0  0  0  0  0  0  0  0  0  0  0  0
    2.0795  -19.7600    0.9694 C   0  0  2  0  0  0  0  0  0  0  0  0
    2.0818  -21.3000    0.9990 C   0  0  0  0  0  0  0  0  0  0  0  0
    3.4184  -21.8349    0.5846 C   0  0  0  0  0  0  0  0  0  0  0  0
    2.4311  -19.2218   -0.4274 C   0  0  0  0  0  0  0  0  0  0  0  0
    0.6561  -19.2477    1.3559 C   0  0  0  0  0  0  0  0  0  0  0  0
    0.1173  -19.7926    2.6943 C   0  0  0  0  0  0  0  0  0  0  0  0
    1.0906  -19.6498    3.8960 C   0  0  0  0  0  0  0  0  0  0  0  0
    0.9672  -18.5096    4.9552 C   0  0  2  0  0  0  0  0  0  0  0  0
    2.3229  -17.9473    5.3564 C   0  0  0  0  0  0  0  0  0  0  0  0
    0.3335  -19.1583    6.2025 C   0  0  0  0  0  0  0  0  0  0  0  0
    0.0557  -18.2031    7.3755 C   0  0  0  0  0  0  0  0  0  0  0  0
   -0.8067  -17.0054    6.9478 C   0  0  0  0  0  0  0  0  0  0  0  0
   -2.1298  -17.4966    6.3114 C   0  0  2  0  0  0  0  0  0  0  0  0
   -2.2366  -17.1668    4.8072 C   0  0  0  0  0  0  0  0  0  0  0  0
   -3.3561  -17.0686    7.0971 C   0  0  0  0  0  0  0  0  0  0  0  0
   -4.6147  -17.8273    6.5922 C   0  0  0  0  0  0  0  0  0  0  0  0
   -4.5044  -19.3828    6.6818 C   0  0  0  0  0  0  0  0  0  0  0  0
   -4.2440  -19.8729    8.1254 C   0  0  0  0  0  0  0  0  0  0  0  0
   -5.4034  -19.4453    9.0317 C   0  0  0  0  0  0  0  0  0  0  0  0
   -4.0740  -21.3912    8.1629 C   0  0  0  0  0  0  0  0  0  0  0  0
    6.0866  -22.9545    0.4621 C   0  0  0  0  0  0  0  0  0  0  0  0
   10.3914  -22.1854    3.1750 C   0  0  0  0  0  0  0  0  0  0  0  0
   14.5718  -23.5019    5.3157 C   0  0  0  0  0  0  0  0  0  0  0  0
   18.9132  -25.9976    8.0932 H   0  0  0  0  0  0  0  0  0  0  0  0
   19.5156  -24.3094    7.9100 H   0  0  0  0  0  0  0  0  0  0  0  0
   17.8313  -24.7150    7.5702 H   0  0  0  0  0  0  0  0  0  0  0  0
   20.2794  -27.6628    4.1986 H   0  0  0  0  0  0  0  0  0  0  0  0
   21.0205  -26.8421    2.7865 H   0  0  0  0  0  0  0  0  0  0  0  0
   22.4102  -26.5747    4.8197 H   0  0  0  0  0  0  0  0  0  0  0  0
   21.7217  -24.9813    4.3788 H   0  0  0  0  0  0  0  0  0  0  0  0
   21.4276  -25.2769    6.7232 H   0  0  0  0  0  0  0  0  0  0  0  0
   20.7794  -26.9473    6.5718 H   0  0  0  0  0  0  0  0  0  0  0  0
   17.2643  -26.5354    2.5393 H   0  0  0  0  0  0  0  0  0  0  0  0
   18.7311  -27.2022    1.8917 H   0  0  0  0  0  0  0  0  0  0  0  0
   18.0849  -27.7219    3.4997 H   0  0  0  0  0  0  0  0  0  0  0  0
   19.9640  -24.9393    1.6798 H   0  0  0  0  0  0  0  0  0  0  0  0
   18.6743  -23.9683    2.4208 H   0  0  0  0  0  0  0  0  0  0  0  0
   20.2661  -23.9307    3.1409 H   0  0  0  0  0  0  0  0  0  0  0  0
   16.8120  -24.4786    5.8698 H   0  0  0  0  0  0  0  0  0  0  0  0
   16.7747  -24.6458    2.8541 H   0  0  0  0  0  0  0  0  0  0  0  0
   14.7809  -24.2197    1.8592 H   0  0  0  0  0  0  0  0  0  0  0  0
   12.5830  -23.0072    3.6749 H   0  0  0  0  0  0  0  0  0  0  0  0
   12.5900  -23.5981    0.7091 H   0  0  0  0  0  0  0  0  0  0  0  0
   10.5656  -22.8082   -0.2888 H   0  0  0  0  0  0  0  0  0  0  0  0
    7.9390  -18.0430    2.9424 H   0  0  0  0  0  0  0  0  0  0  0  0
    7.5795  -19.0692    4.3911 H   0  0  0  0  0  0  0  0  0  0  0  0
    8.7800  -19.5935    3.1867 H   0  0  0  0  0  0  0  0  0  0  0  0
    4.6360  -17.1693    2.7379 H   0  0  0  0  0  0  0  0  0  0  0  0
    4.4774  -18.2127    4.2042 H   0  0  0  0  0  0  0  0  0  0  0  0
    5.9799  -17.4807    3.8734 H   0  0  0  0  0  0  0  0  0  0  0  0
    1.9346  -21.6504    2.0461 H   0  0  0  0  0  0  0  0  0  0  0  0
    1.2944  -21.7569    0.3621 H   0  0  0  0  0  0  0  0  0  0  0  0
    3.3832  -22.9039    0.8812 H   0  0  0  0  0  0  0  0  0  0  0  0
    3.5673  -21.7538   -0.5126 H   0  0  0  0  0  0  0  0  0  0  0  0
    1.7491  -19.6411   -1.1942 H   0  0  0  0  0  0  0  0  0  0  0  0
    2.3694  -18.1148   -0.4193 H   0  0  0  0  0  0  0  0  0  0  0  0
    3.4771  -19.4748   -0.7022 H   0  0  0  0  0  0  0  0  0  0  0  0
    0.6224  -18.1425    1.3465 H   0  0  0  0  0  0  0  0  0  0  0  0
   -0.0530  -19.6108    0.5673 H   0  0  0  0  0  0  0  0  0  0  0  0
   -0.9169  -19.4488    2.9012 H   0  0  0  0  0  0  0  0  0  0  0  0
   -0.0194  -20.8839    2.5261 H   0  0  0  0  0  0  0  0  0  0  0  0
    0.9026  -20.5940    4.4298 H   0  0  0  0  0  0  0  0  0  0  0  0
    2.1304  -19.8917    3.7089 H   0  0  0  0  0  0  0  0  0  0  0  0
    0.4275  -17.6330    4.5577 H   0  0  0  0  0  0  0  0  0  0  0  0
    2.9971  -18.8060    5.5359 H   0  0  0  0  0  0  0  0  0  0  0  0
    2.6603  -17.2285    4.5794 H   0  0  0  0  0  0  0  0  0  0  0  0
    2.3251  -17.3557    6.2874 H   0  0  0  0  0  0  0  0  0  0  0  0
   -0.5868  -19.6695    5.8592 H   0  0  0  0  0  0  0  0  0  0  0  0
    0.9868  -19.9774    6.5708 H   0  0  0  0  0  0  0  0  0  0  0  0
   -0.4672  -18.7850    8.1652 H   0  0  0  0  0  0  0  0  0  0  0  0
    0.9927  -17.8410    7.8403 H   0  0  0  0  0  0  0  0  0  0  0  0
   -0.9884  -16.3835    7.8497 H   0  0  0  0  0  0  0  0  0  0  0  0
   -0.2467  -16.3477    6.2493 H   0  0  0  0  0  0  0  0  0  0  0  0
   -2.1566  -18.5714    6.4424 H   0  0  0  0  0  0  0  0  0  0  0  0
   -1.5431  -17.7650    4.2153 H   0  0  0  0  0  0  0  0  0  0  0  0
   -3.1905  -17.4573    4.3462 H   0  0  0  0  0  0  0  0  0  0  0  0
   -2.0684  -16.0851    4.6394 H   0  0  0  0  0  0  0  0  0  0  0  0
   -3.1886  -17.3096    8.1711 H   0  0  0  0  0  0  0  0  0  0  0  0
   -3.4774  -15.9704    7.0285 H   0  0  0  0  0  0  0  0  0  0  0  0
   -5.4852  -17.4662    7.1602 H   0  0  0  0  0  0  0  0  0  0  0  0
   -4.8523  -17.5542    5.5515 H   0  0  0  0  0  0  0  0  0  0  0  0
   -5.4404  -19.8317    6.2933 H   0  0  0  0  0  0  0  0  0  0  0  0
   -3.7201  -19.7871    6.0019 H   0  0  0  0  0  0  0  0  0  0  0  0
   -3.2929  -19.4549    8.5208 H   0  0  0  0  0  0  0  0  0  0  0  0
   -6.3567  -19.8486    8.6270 H   0  0  0  0  0  0  0  0  0  0  0  0
   -5.2468  -19.8030   10.0658 H   0  0  0  0  0  0  0  0  0  0  0  0
   -5.4799  -18.3421    9.0948 H   0  0  0  0  0  0  0  0  0  0  0  0
   -3.1894  -21.6916    7.5596 H   0  0  0  0  0  0  0  0  0  0  0  0
   -3.8995  -21.7187    9.2111 H   0  0  0  0  0  0  0  0  0  0  0  0
   -4.9789  -21.8947    7.7662 H   0  0  0  0  0  0  0  0  0  0  0  0
    6.6846  -22.8555   -0.4446 H   0  0  0  0  0  0  0  0  0  0  0  0
    6.5532  -23.6594    1.1793 H   0  0  0  0  0  0  0  0  0  0  0  0
    5.1989  -23.4618    0.0594 H   0  0  0  0  0  0  0  0  0  0  0  0
   10.3940  -23.0589    3.8567 H   0  0  0  0  0  0  0  0  0  0  0  0
   11.0858  -21.3956    3.5329 H   0  0  0  0  0  0  0  0  0  0  0  0
    9.4059  -21.7702    3.3398 H   0  0  0  0  0  0  0  0  0  0  0  0
   14.5761  -24.3781    5.9952 H   0  0  0  0  0  0  0  0  0  0  0  0
   15.2489  -22.7131    5.7017 H   0  0  0  0  0  0  0  0  0  0  0  0
   13.5613  -23.0855    5.3909 H   0  0  0  0  0  0  0  0  0  0  0  0
  1  2  1  0  0  0  0
  1 53  1  0  0  0  0
  1 54  1  0  0  0  0
  1 55  1  0  0  0  0
  2  3  2  0  0  0  0
  2  7  1  0  0  0  0
  3  4  1  0  0  0  0
  3 10  1  0  0  0  0
  4  5  1  0  0  0  0
  4  8  1  0  0  0  0
  4  9  1  0  0  0  0
  5  6  1  0  0  0  0
  5 56  1  0  0  0  0
  5 57  1  0  0  0  0
  6  7  1  0  0  0  0
  6 58  1  0  0  0  0
  6 59  1  0  0  0  0
  7 60  1  0  0  0  0
  7 61  1  0  0  0  0
  8 62  1  0  0  0  0
  8 63  1  0  0  0  0
  8 64  1  0  0  0  0
  9 65  1  0  0  0  0
  9 66  1  0  0  0  0
  9 67  1  0  0  0  0
 10 11  2  0  0  0  0
 10 68  1  0  0  0  0
 11 12  1  0  0  0  0
 11 69  1  0  0  0  0
 12 13  2  0  0  0  0
 12 52  1  0  0  0  0
 13 14  1  0  0  0  0
 13 70  1  0  0  0  0
 14 15  2  0  0  0  0
 14 71  1  0  0  0  0
 15 16  1  0  0  0  0
 15 72  1  0  0  0  0
 16 17  2  0  0  0  0
 16 51  1  0  0  0  0
 17 18  1  0  0  0  0
 17 73  1  0  0  0  0
 18 19  2  0  0  0  0
 18 20  1  0  0  0  0
 20 21  1  0  0  0  0
 21 22  2  0  0  0  0
 21 26  1  0  0  0  0
 22 23  1  0  0  0  0
 22 50  1  0  0  0  0
 23 24  2  0  0  0  0
 23 32  1  0  0  0  0
 24 25  1  0  0  0  0
 24 29  1  0  0  0  0
 25 26  2  0  0  0  0
 25 28  1  0  0  0  0
 26 27  1  0  0  0  0
 27 74  1  0  0  0  0
 27 75  1  0  0  0  0
 27 76  1  0  0  0  0
 28 77  1  0  0  0  0
 28 78  1  0  0  0  0
 28 79  1  0  0  0  0
 29 30  1  0  0  0  0
 30 31  1  0  0  0  0
 30 33  1  6  0  0  0
 30 34  1  0  0  0  0
 31 32  1  0  0  0  0
 31 80  1  0  0  0  0
 31 81  1  0  0  0  0
 32 82  1  0  0  0  0
 32 83  1  0  0  0  0
 33 84  1  0  0  0  0
 33 85  1  0  0  0  0
 33 86  1  0  0  0  0
 34 35  1  0  0  0  0
 34 87  1  0  0  0  0
 34 88  1  0  0  0  0
 35 36  1  0  0  0  0
 35 89  1  0  0  0  0
 35 90  1  0  0  0  0
 36 91  1  0  0  0  0
 36 92  1  0  0  0  0
 37 39  1  0  0  0  0
 37 93  1  6  0  0  0
 37 38  1  0  0  0  0
 37 36  1  0  0  0  0
 38 94  1  0  0  0  0
 38 95  1  0  0  0  0
 38 96  1  0  0  0  0
 39 40  1  0  0  0  0
 39 97  1  0  0  0  0
 39 98  1  0  0  0  0
 40 41  1  0  0  0  0
 40 99  1  0  0  0  0
 40100  1  0  0  0  0
 41101  1  0  0  0  0
 41102  1  0  0  0  0
 42 44  1  0  0  0  0
 42103  1  1  0  0  0
 42 43  1  0  0  0  0
 42 41  1  0  0  0  0
 43104  1  0  0  0  0
 43105  1  0  0  0  0
 43106  1  0  0  0  0
 44 45  1  0  0  0  0
 44107  1  0  0  0  0
 44108  1  0  0  0  0
 45 46  1  0  0  0  0
 45109  1  0  0  0  0
 45110  1  0  0  0  0
 46 47  1  0  0  0  0
 46111  1  0  0  0  0
 46112  1  0  0  0  0
 47 48  1  0  0  0  0
 47 49  1  0  0  0  0
 47113  1  0  0  0  0
 48114  1  0  0  0  0
 48115  1  0  0  0  0
 48116  1  0  0  0  0
 49117  1  0  0  0  0
 49118  1  0  0  0  0
 49119  1  0  0  0  0
 50120  1  0  0  0  0
 50121  1  0  0  0  0
 50122  1  0  0  0  0
 51123  1  0  0  0  0
 51124  1  0  0  0  0
 51125  1  0  0  0  0
 52126  1  0  0  0  0
 52127  1  0  0  0  0
 52128  1  0  0  0  0
M  END
$$$$

 OpenBabel05152416213D

 48 51  0  0  1  0  0  0  0  0999 V2000
    0.9060    0.0795    0.2482 C   0  0  0  0  0  0  0  0  0  0  0  0
    0.4819   -0.6143   -1.0947 C   0  0  2  0  0  0  0  0  0  0  0  0
    1.0738    0.0634   -2.4369 C   0  0  0  0  0  0  0  0  0  0  0  0
    2.5703   -0.1994   -2.8248 C   0  0  0  0  0  0  0  0  0  0  0  0
    3.0717   -1.0500   -1.7566 C   0  0  0  0  0  0  0  0  0  0  0  0
    3.8099   -0.5884   -0.9337 O   0  0  0  0  0  0  0  0  0  0  0  0
    2.2642   -2.2852   -1.4129 C   0  0  0  0  0  0  0  0  0  0  0  0
    0.9794   -2.0173   -1.0356 C   0  0  0  0  0  0  0  0  0  0  0  0
    0.2474   -3.0605   -0.1671 C   0  0  0  0  0  0  0  0  0  0  0  0
   -1.2671   -2.9849   -0.3393 C   0  0  0  0  0  0  0  0  0  0  0  0
   -1.7689   -1.5321   -0.2013 C   0  0  2  0  0  0  0  0  0  0  0  0
   -1.0689   -0.6077   -1.2613 C   0  0  2  0  0  0  0  0  0  0  0  0
   -1.6257    0.8377   -1.2624 C   0  0  0  0  0  0  0  0  0  0  0  0
   -3.1261    0.8125   -1.4787 C   0  0  0  0  0  0  0  0  0  0  0  0
   -3.8147    0.0120   -0.3372 C   0  0  1  0  0  0  0  0  0  0  0  0
   -3.3095   -1.4490   -0.2849 C   0  0  1  0  0  0  0  0  0  0  0  0
   -3.9398   -2.0813   -1.5238 C   0  0  0  0  0  0  0  0  0  0  0  0
   -5.3666   -1.5431   -1.4918 C   0  0  0  0  0  0  0  0  0  0  0  0
   -5.3028   -0.1762   -0.7290 C   0  0  0  0  0  0  0  0  0  0  0  0
   -6.0181   -0.2704    0.3140 O   0  0  0  0  0  0  0  0  0  0  0  0
   -3.5544    0.7884    1.0047 C   0  0  0  0  0  0  0  0  0  0  0  0
    2.8317   -3.4441   -1.4639 O   0  0  0  0  0  0  0  0  0  0  0  0
    0.3489   -0.3335    1.1124 H   0  0  0  0  0  0  0  0  0  0  0  0
    0.7420    1.1705    0.2387 H   0  0  0  0  0  0  0  0  0  0  0  0
    1.9535   -0.1157    0.5319 H   0  0  0  0  0  0  0  0  0  0  0  0
    0.4595   -0.3330   -3.2852 H   0  0  0  0  0  0  0  0  0  0  0  0
    0.9018    1.1503   -2.4611 H   0  0  0  0  0  0  0  0  0  0  0  0
    2.3631   -0.6329   -3.8363 H   0  0  0  0  0  0  0  0  0  0  0  0
    3.4226   -0.6185   -3.4126 H   0  0  0  0  0  0  0  0  0  0  0  0
    0.6235   -4.0904   -0.2482 H   0  0  0  0  0  0  0  0  0  0  0  0
    0.4515   -2.7482    0.8824 H   0  0  0  0  0  0  0  0  0  0  0  0
   -1.7414   -3.6181    0.4481 H   0  0  0  0  0  0  0  0  0  0  0  0
   -1.5272   -3.4061   -1.3313 H   0  0  0  0  0  0  0  0  0  0  0  0
   -1.5213   -1.1890    0.8148 H   0  0  0  0  0  0  0  0  0  0  0  0
   -1.3100   -1.0561   -2.2516 H   0  0  0  0  0  0  0  0  0  0  0  0
   -1.1884    1.4602   -2.0672 H   0  0  0  0  0  0  0  0  0  0  0  0
   -1.3880    1.3584   -0.3168 H   0  0  0  0  0  0  0  0  0  0  0  0
   -3.5226    1.8508   -1.5070 H   0  0  0  0  0  0  0  0  0  0  0  0
   -3.3216    0.4010   -2.4906 H   0  0  0  0  0  0  0  0  0  0  0  0
   -3.7517   -1.9612    0.6027 H   0  0  0  0  0  0  0  0  0  0  0  0
   -3.8776   -3.1893   -1.5842 H   0  0  0  0  0  0  0  0  0  0  0  0
   -3.4395   -1.7002   -2.4307 H   0  0  0  0  0  0  0  0  0  0  0  0
   -6.0107   -2.2422   -0.9145 H   0  0  0  0  0  0  0  0  0  0  0  0
   -5.7864   -1.5235   -2.5249 H   0  0  0  0  0  0  0  0  0  0  0  0
   -4.1986    0.4599    1.8396 H   0  0  0  0  0  0  0  0  0  0  0  0
   -2.5170    0.6502    1.3760 H   0  0  0  0  0  0  0  0  0  0  0  0
   -3.6654    1.8874    0.8678 H   0  0  0  0  0  0  0  0  0  0  0  0
    2.2755   -4.2454   -1.6599 H   0  0  0  0  0  0  0  0  0  0  0  0
  1 23  1  0  0  0  0
  1 24  1  0  0  0  0
  1 25  1  0  0  0  0
  2  3  1  0  0  0  0
  2  8  1  0  0  0  0
  2 12  1  0  0  0  0
  2  1  1  6  0  0  0
  3  4  1  0  0  0  0
  3 26  1  0  0  0  0
  3 27  1  0  0  0  0
  4  5  1  0  0  0  0
  4 28  1  0  0  0  0
  4 29  1  0  0  0  0
  5  7  1  0  0  0  0
  5  6  2  0  0  0  0
  7  8  2  0  0  0  0
  7 22  1  0  0  0  0
  8  9  1  0  0  0  0
  9 10  1  0  0  0  0
  9 30  1  0  0  0  0
  9 31  1  0  0  0  0
 10 11  1  0  0  0  0
 10 32  1  0  0  0  0
 10 33  1  0  0  0  0
 11 12  1  0  0  0  0
 11 16  1  0  0  0  0
 11 34  1  6  0  0  0
 12 13  1  0  0  0  0
 12 35  1  1  0  0  0
 13 14  1  0  0  0  0
 13 36  1  0  0  0  0
 13 37  1  0  0  0  0
 14 15  1  0  0  0  0
 14 38  1  0  0  0  0
 14 39  1  0  0  0  0
 15 16  1  0  0  0  0
 15 19  1  0  0  0  0
 15 21  1  6  0  0  0
 16 17  1  0  0  0  0
 16 40  1  1  0  0  0
 17 18  1  0  0  0  0
 17 41  1  0  0  0  0
 17 42  1  0  0  0  0
 18 19  1  0  0  0  0
 18 43  1  0  0  0  0
 18 44  1  0  0  0  0
 19 20  2  0  0  0  0
 21 45  1  0  0  0  0
 21 46  1  0  0  0  0
 21 47  1  0  0  0  0
 22 48  1  0  0  0  0
M  END
$$$$

 OpenBabel05152416213D

 52 51  0  0  0  0  0  0  0  0999 V2000
    2.7520    0.5716    0.0654 C   0  0  0  0  0  0  0  0  0  0  0  0
    1.3340    0.1746    0.0344 C   0  0  0  0  0  0  0  0  0  0  0  0
    0.1832    1.0813    0.0706 C   0  0  0  0  0  0  0  0  0  0  0  0
   -1.1253    0.3323    0.0253 C   0  0  0  0  0  0  0  0  0  0  0  0
   -1.1498   -1.0778   -0.0151 C   0  0  0  0  0  0  0  0  0  0  0  0
   -0.0177   -1.8355   -0.0251 C   0  0  0  0  0  0  0  0  0  0  0  0
    1.2015   -1.2261   -0.0059 C   0  0  0  0  0  0  0  0  0  0  0  0
   -2.5934    0.7986    0.0083 C   0  0  0  0  0  0  0  0  0  0  0  0
    0.3447    2.6180    0.1291 N   0  0  0  0  0  0  0  0  0  0  0  0
   -0.9808    3.3426    0.2018 C   0  0  0  0  0  0  0  0  0  0  0  0
   -1.6270    4.0980    1.4075 C   0  0  0  0  0  0  0  0  0  0  0  0
   -1.2632    5.5566    1.5224 C   0  0  0  0  0  0  0  0  0  0  0  0
   -1.1647    6.3776    0.0586 C   0  0  0  0  0  0  0  0  0  0  0  0
   -0.4876    7.6226    0.0805 C   0  0  0  0  0  0  0  0  0  0  0  0
   -0.1712    8.3185   -1.0574 N   0  0  0  0  0  0  0  0  0  0  0  0
   -0.4274    7.8658   -2.3102 C   0  0  0  0  0  0  0  0  0  0  0  0
   -1.0524    6.6608   -2.4633 C   0  0  0  0  0  0  0  0  0  0  0  0
   -1.4839    5.9557   -1.3271 C   0  0  0  0  0  0  0  0  0  0  0  0
    1.5862    3.3476   -0.0448 C   0  0  0  0  0  0  0  0  0  0  0  0
    2.6910    2.9155    0.0606 O   0  0  0  0  0  0  0  0  0  0  0  0
    1.9188    4.7963   -0.3084 C   0  0  0  0  0  0  0  0  0  0  0  0
    1.3106    5.1920   -1.6355 C   0  0  0  0  0  0  0  0  0  0  0  0
    1.5913    5.4808    0.8853 N   0  0  0  0  0  0  0  0  0  0  0  0
    1.1202   -0.2098   -2.9551 Cl  0  0  0  0  0  0  0  0  0  0  0  0
    0.8775   -0.3504    2.9530 Cl  0  0  0  0  0  0  0  0  0  0  0  0
    2.9028    1.0914   -0.9181 H   0  0  0  0  0  0  0  0  0  0  0  0
    2.8451    1.0886    1.0567 H   0  0  0  0  0  0  0  0  0  0  0  0
    3.6281   -0.0758    0.0821 H   0  0  0  0  0  0  0  0  0  0  0  0
   -2.0818   -1.6325   -0.0379 H   0  0  0  0  0  0  0  0  0  0  0  0
   -0.0966   -2.9148   -0.0460 H   0  0  0  0  0  0  0  0  0  0  0  0
    2.0789   -1.8627   -0.0124 H   0  0  0  0  0  0  0  0  0  0  0  0
   -2.8115    1.3708    0.9383 H   0  0  0  0  0  0  0  0  0  0  0  0
   -2.8104    1.3393   -0.9476 H   0  0  0  0  0  0  0  0  0  0  0  0
   -3.3872    0.0277    0.0130 H   0  0  0  0  0  0  0  0  0  0  0  0
   -1.2268    3.6756   -0.7125 H   0  0  0  0  0  0  0  0  0  0  0  0
   -1.8064    2.8199   -0.0457 H   0  0  0  0  0  0  0  0  0  0  0  0
   -2.6937    4.2997    1.1939 H   0  0  0  0  0  0  0  0  0  0  0  0
   -1.6340    3.4460    2.3350 H   0  0  0  0  0  0  0  0  0  0  0  0
   -0.6057    6.0473    2.3092 H   0  0  0  0  0  0  0  0  0  0  0  0
   -0.3948    5.0886    2.1069 H   0  0  0  0  0  0  0  0  0  0  0  0
   -0.1221    8.0170    1.0112 H   0  0  0  0  0  0  0  0  0  0  0  0
   -0.0852    8.3941   -3.1944 H   0  0  0  0  0  0  0  0  0  0  0  0
   -1.1300    6.2262   -3.4689 H   0  0  0  0  0  0  0  0  0  0  0  0
   -1.9144    5.0602   -1.7300 H   0  0  0  0  0  0  0  0  0  0  0  0
    2.9809    5.0751   -0.4247 H   0  0  0  0  0  0  0  0  0  0  0  0
    0.3692    4.6718   -1.6763 H   0  0  0  0  0  0  0  0  0  0  0  0
    1.3482    6.2913   -1.6551 H   0  0  0  0  0  0  0  0  0  0  0  0
    1.7005    4.7548   -2.5709 H   0  0  0  0  0  0  0  0  0  0  0  0
    1.6608    6.5122    0.9055 H   0  0  0  0  0  0  0  0  0  0  0  0
    0.6899    5.3243    0.6064 H   0  0  0  0  0  0  0  0  0  0  0  0
    2.2901   -0.4819   -2.2724 H   0  0  0  0  0  0  0  0  0  0  0  0
    2.0994   -0.5465    2.3359 H   0  0  0  0  0  0  0  0  0  0  0  0
  1  2  1  0  0  0  0
  1 26  1  0  0  0  0
  1 27  1  0  0  0  0
  1 28  1  0  0  0  0
  2  3  2  0  0  0  0
  2  7  1  0  0  0  0
  3  4  1  0  0  0  0
  3  9  1  0  0  0  0
  4  5  2  0  0  0  0
  4  8  1  0  0  0  0
  5  6  1  0  0  0  0
  5 29  1  0  0  0  0
  6  7  2  0  0  0  0
  6 30  1  0  0  0  0
  7 31  1  0  0  0  0
  8 32  1  0  0  0  0
  8 33  1  0  0  0  0
  8 34  1  0  0  0  0
  9 10  1  0  0  0  0
  9 19  1  0  0  0  0
 10 11  1  0  0  0  0
 10 35  1  0  0  0  0
 10 36  1  0  0  0  0
 11 12  1  0  0  0  0
 11 37  1  0  0  0  0
 11 38  1  0  0  0  0
 12 13  1  0  0  0  0
 12 39  1  0  0  0  0
 12 40  1  0  0  0  0
 13 14  2  0  0  0  0
 13 18  1  0  0  0  0
 14 15  1  0  0  0  0
 14 41  1  0  0  0  0
 15 16  2  0  0  0  0
 16 17  1  0  0  0  0
 16 42  1  0  0  0  0
 17 18  2  0  0  0  0
 17 43  1  0  0  0  0
 18 44  1  0  0  0  0
 19 20  2  0  0  0  0
 19 21  1  0  0  0  0
 21 22  1  0  0  0  0
 21 23  1  0  0  0  0
 21 45  1  0  0  0  0
 22 46  1  0  0  0  0
 22 47  1  0  0  0  0
 22 48  1  0  0  0  0
 23 49  1  0  0  0  0
 23 50  1  0  0  0  0
 24 51  1  0  0  0  0
 25 52  1  0  0  0  0
M  END
$$$$

 OpenBabel05152416213D

 44 45  0  0  0  0  0  0  0  0999 V2000
    2.6373    0.6937    0.0603 C   0  0  0  0  0  0  0  0  0  0  0  0
    2.6296   -0.7157    0.0277 C   0  0  0  0  0  0  0  0  0  0  0  0
    1.4093   -1.4102   -0.0420 C   0  0  0  0  0  0  0  0  0  0  0  0
    0.1651   -0.7244   -0.0592 C   0  0  0  0  0  0  0  0  0  0  0  0
    0.1656    0.7146   -0.0388 C   0  0  0  0  0  0  0  0  0  0  0  0
    1.4185    1.4015    0.0135 C   0  0  0  0  0  0  0  0  0  0  0  0
   -1.0963    1.3834   -0.0614 C   0  0  0  0  0  0  0  0  0  0  0  0
   -2.2287    0.6476   -0.0397 N   0  0  0  0  0  0  0  0  0  0  0  0
   -2.2280   -0.6866   -0.0513 N   0  0  0  0  0  0  0  0  0  0  0  0
   -1.0893   -1.4080   -0.0875 C   0  0  0  0  0  0  0  0  0  0  0  0
   -1.2030   -2.8421   -0.0636 N   0  0  0  0  0  0  0  0  0  0  0  0
   -2.4649   -3.5032   -0.0311 C   0  0  0  0  0  0  0  0  0  0  0  0
   -3.4424   -3.2598   -1.0105 C   0  0  0  0  0  0  0  0  0  0  0  0
   -4.6657   -3.9389   -0.9710 C   0  0  0  0  0  0  0  0  0  0  0  0
   -4.9340   -4.8441    0.0617 C   0  0  0  0  0  0  0  0  0  0  0  0
   -3.9681   -5.0871    1.0440 C   0  0  0  0  0  0  0  0  0  0  0  0
   -2.7329   -4.4320    0.9885 C   0  0  0  0  0  0  0  0  0  0  0  0
   -6.4798   -5.6718    0.1231 Cl  0  0  0  0  0  0  0  0  0  0  0  0
   -1.2909    2.8907   -0.1218 C   0  0  0  0  0  0  0  0  0  0  0  0
   -2.0789    3.2982   -1.3529 C   0  0  0  0  0  0  0  0  0  0  0  0
   -3.4162    2.8960   -1.5285 C   0  0  0  0  0  0  0  0  0  0  0  0
   -4.1208    3.3025   -2.6620 C   0  0  0  0  0  0  0  0  0  0  0  0
   -3.5198    4.0875   -3.5937 N   0  0  0  0  0  0  0  0  0  0  0  0
   -2.2306    4.4947   -3.4554 C   0  0  0  0  0  0  0  0  0  0  0  0
   -1.4878    4.1091   -2.3362 C   0  0  0  0  0  0  0  0  0  0  0  0
    1.0292    0.1142   -3.2325 Cl  0  0  0  0  0  0  0  0  0  0  0  0
    0.9253   -0.3830    3.2309 Cl  0  0  0  0  0  0  0  0  0  0  0  0
    3.5738    1.2469    0.1213 H   0  0  0  0  0  0  0  0  0  0  0  0
    3.5555   -1.2870    0.0560 H   0  0  0  0  0  0  0  0  0  0  0  0
    1.4685   -2.4873   -0.0712 H   0  0  0  0  0  0  0  0  0  0  0  0
    1.4936    2.4786    0.0440 H   0  0  0  0  0  0  0  0  0  0  0  0
   -0.3821   -3.4246    0.1164 H   0  0  0  0  0  0  0  0  0  0  0  0
   -3.2434   -2.5692   -1.8194 H   0  0  0  0  0  0  0  0  0  0  0  0
   -5.4039   -3.7614   -1.7429 H   0  0  0  0  0  0  0  0  0  0  0  0
   -4.1726   -5.7825    1.8495 H   0  0  0  0  0  0  0  0  0  0  0  0
   -1.9940   -4.6213    1.7570 H   0  0  0  0  0  0  0  0  0  0  0  0
   -1.8391    3.2414    0.7799 H   0  0  0  0  0  0  0  0  0  0  0  0
   -0.3329    3.4255   -0.1367 H   0  0  0  0  0  0  0  0  0  0  0  0
   -3.9209    2.2813   -0.7966 H   0  0  0  0  0  0  0  0  0  0  0  0
   -5.1498    2.9963   -2.7952 H   0  0  0  0  0  0  0  0  0  0  0  0
   -1.7816    5.1219   -4.2137 H   0  0  0  0  0  0  0  0  0  0  0  0
   -0.4621    4.4416   -2.2399 H   0  0  0  0  0  0  0  0  0  0  0  0
    1.7909    0.0869   -2.1308 H   0  0  0  0  0  0  0  0  0  0  0  0
    1.4852    0.0505    2.1006 H   0  0  0  0  0  0  0  0  0  0  0  0
  1  2  2  0  0  0  0
  1  6  1  0  0  0  0
  1 28  1  0  0  0  0
  2  3  1  0  0  0  0
  2 29  1  0  0  0  0
  3  4  2  0  0  0  0
  3 30  1  0  0  0  0
  4  5  1  0  0  0  0
  4 10  1  0  0  0  0
  5  6  2  0  0  0  0
  5  7  1  0  0  0  0
  6 31  1  0  0  0  0
  7  8  2  0  0  0  0
  7 19  1  0  0  0  0
  8  9  1  0  0  0  0
  9 10  2  0  0  0  0
 10 11  1  0  0  0  0
 11 12  1  0  0  0  0
 11 32  1  0  0  0  0
 12 13  2  0  0  0  0
 12 17  1  0  0  0  0
 13 14  1  0  0  0  0
 13 33  1  0  0  0  0
 14 15  2  0  0  0  0
 14 34  1  0  0  0  0
 15 16  1  0  0  0  0
 15 18  1  0  0  0  0
 16 17  2  0  0  0  0
 16 35  1  0  0  0  0
 17 36  1  0  0  0  0
 19 20  1  0  0  0  0
 19 37  1  0  0  0  0
 19 38  1  0  0  0  0
 20 21  2  0  0  0  0
 20 25  1  0  0  0  0
 21 22  1  0  0  0  0
 21 39  1  0  0  0  0
 22 23  2  0  0  0  0
 22 40  1  0  0  0  0
 23 24  1  0  0  0  0
 24 25  2  0  0  0  0
 24 41  1  0  0  0  0
 25 42  1  0  0  0  0
 26 43  1  0  0  0  0
 27 44  1  0  0  0  0
M  END
$$$$

 OpenBabel05152416213D

 33 35  0  0  0  0  0  0  0  0999 V2000
    0.2137    1.1983   -0.0502 C   0  0  0  0  0  0  0  0  0  0  0  0
    1.5853    1.1765    0.0286 C   0  0  0  0  0  0  0  0  0  0  0  0
    2.3282   -0.0111    0.0691 C   0  0  0  0  0  0  0  0  0  0  0  0
    1.6076   -1.2117    0.0130 C   0  0  0  0  0  0  0  0  0  0  0  0
    0.2094   -1.1976   -0.0610 C   0  0  0  0  0  0  0  0  0  0  0  0
   -0.4883    0.0129   -0.0623 C   0  0  0  0  0  0  0  0  0  0  0  0
   -1.9221    0.0213    0.0001 C   0  0  0  0  0  0  0  0  0  0  0  0
   -3.0769   -0.0236    0.0457 N   0  0  0  0  0  0  0  0  0  0  0  0
    3.8516   -0.0037    0.1721 C   0  0  0  0  0  0  0  0  0  0  0  0
    4.4406    0.6889   -1.0521 C   0  0  0  0  0  0  0  0  0  0  0  0
    4.1723    2.0410   -1.2701 C   0  0  0  0  0  0  0  0  0  0  0  0
    4.5757    2.7066   -2.4016 C   0  0  0  0  0  0  0  0  0  0  0  0
    5.3602    2.0525   -3.3369 C   0  0  0  0  0  0  0  0  0  0  0  0
    5.6704    0.7088   -3.1503 C   0  0  0  0  0  0  0  0  0  0  0  0
    5.2168    0.0248   -2.0150 C   0  0  0  0  0  0  0  0  0  0  0  0
    5.9097    2.7926   -4.4368 C   0  0  0  0  0  0  0  0  0  0  0  0
    6.3278    3.4280   -5.3081 N   0  0  0  0  0  0  0  0  0  0  0  0
    4.2851    0.6386    1.4154 N   0  0  0  0  0  0  0  0  0  0  0  0
    3.9178    0.3013    2.6651 C   0  0  0  0  0  0  0  0  0  0  0  0
    4.5951    1.0367    3.5664 N   0  0  0  0  0  0  0  0  0  0  0  0
    5.3651    1.8403    2.8023 C   0  0  0  0  0  0  0  0  0  0  0  0
    5.1755    1.6125    1.4933 N   0  0  0  0  0  0  0  0  0  0  0  0
   -0.2959    2.1473   -0.0658 H   0  0  0  0  0  0  0  0  0  0  0  0
    1.9965    2.1239    0.0908 H   0  0  0  0  0  0  0  0  0  0  0  0
    2.1110   -2.1599    0.0446 H   0  0  0  0  0  0  0  0  0  0  0  0
   -0.3261   -2.1312   -0.0952 H   0  0  0  0  0  0  0  0  0  0  0  0
    4.2126   -1.0549    0.2103 H   0  0  0  0  0  0  0  0  0  0  0  0
    3.6739    2.6295   -0.5682 H   0  0  0  0  0  0  0  0  0  0  0  0
    4.2943    3.7415   -2.5207 H   0  0  0  0  0  0  0  0  0  0  0  0
    6.2661    0.1958   -3.8821 H   0  0  0  0  0  0  0  0  0  0  0  0
    5.4784   -1.0106   -1.9115 H   0  0  0  0  0  0  0  0  0  0  0  0
    3.1933   -0.4684    2.9181 H   0  0  0  0  0  0  0  0  0  0  0  0
    6.0643    2.5684    3.1871 H   0  0  0  0  0  0  0  0  0  0  0  0
  1  2  2  0  0  0  0
  1  6  1  0  0  0  0
  1 23  1  0  0  0  0
  2  3  1  0  0  0  0
  2 24  1  0  0  0  0
  3  4  2  0  0  0  0
  3  9  1  0  0  0  0
  4  5  1  0  0  0  0
  4 25  1  0  0  0  0
  5  6  2  0  0  0  0
  5 26  1  0  0  0  0
  6  7  1  0  0  0  0
  7  8  3  0  0  0  0
  9 10  1  0  0  0  0
  9 18  1  0  0  0  0
  9 27  1  0  0  0  0
 10 11  2  0  0  0  0
 10 15  1  0  0  0  0
 11 12  1  0  0  0  0
 11 28  1  0  0  0  0
 12 13  2  0  0  0  0
 12 29  1  0  0  0  0
 13 14  1  0  0  0  0
 13 16  1  0  0  0  0
 14 15  2  0  0  0  0
 14 30  1  0  0  0  0
 15 31  1  0  0  0  0
 16 17  3  0  0  0  0
 18 19  1  0  0  0  0
 18 22  1  0  0  0  0
 19 20  2  0  0  0  0
 19 32  1  0  0  0  0
 20 21  1  0  0  0  0
 21 22  2  0  0  0  0
 21 33  1  0  0  0  0
M  END
$$$$

 OpenBabel05152416213D

 35 37  0  0  0  0  0  0  0  0999 V2000
    2.1761   -0.6921    0.0062 C   0  0  0  0  0  0  0  0  0  0  0  0
    2.1524    0.7200   -0.0027 C   0  0  0  0  0  0  0  0  0  0  0  0
    0.9292    1.4133   -0.0052 C   0  0  0  0  0  0  0  0  0  0  0  0
   -0.2419    0.6629   -0.0213 C   0  0  0  0  0  0  0  0  0  0  0  0
   -0.2230   -0.7081   -0.0092 C   0  0  0  0  0  0  0  0  0  0  0  0
    0.9764   -1.4248    0.0153 C   0  0  0  0  0  0  0  0  0  0  0  0
   -1.5401   -1.1210   -0.0440 C   0  0  0  0  0  0  0  0  0  0  0  0
   -2.3003    0.0414   -0.1189 C   0  0  0  0  0  0  0  0  0  0  0  0
   -1.5019    1.1249   -0.0726 N   0  0  0  0  0  0  0  0  0  0  0  0
   -2.0467   -2.5285   -0.0350 C   0  0  0  0  0  0  0  0  0  0  0  0
   -2.9015   -2.8538    1.1975 C   0  0  0  0  0  0  0  0  0  0  0  0
   -4.1533   -2.0976    1.2417 N   0  0  0  0  0  0  0  0  0  0  0  0
   -5.4073   -2.6254    1.1022 C   0  0  0  0  0  0  0  0  0  0  0  0
   -6.3518   -1.8674    0.9472 O   0  0  0  0  0  0  0  0  0  0  0  0
   -5.6640   -4.0841    1.0975 C   0  0  0  0  0  0  0  0  0  0  0  0
   -6.5912   -4.6454    0.2079 C   0  0  0  0  0  0  0  0  0  0  0  0
   -6.7822   -5.9926    0.1890 N   0  0  0  0  0  0  0  0  0  0  0  0
   -6.1087   -6.8232    1.0303 C   0  0  0  0  0  0  0  0  0  0  0  0
   -5.2100   -6.3019    1.9581 C   0  0  0  0  0  0  0  0  0  0  0  0
   -5.0004   -4.9321    1.9967 C   0  0  0  0  0  0  0  0  0  0  0  0
    3.1235   -1.2147   -0.0007 H   0  0  0  0  0  0  0  0  0  0  0  0
    3.0815    1.2726   -0.0157 H   0  0  0  0  0  0  0  0  0  0  0  0
    0.8975    2.4945   -0.0149 H   0  0  0  0  0  0  0  0  0  0  0  0
    0.9975   -2.5067    0.0184 H   0  0  0  0  0  0  0  0  0  0  0  0
   -3.3727    0.1065   -0.2102 H   0  0  0  0  0  0  0  0  0  0  0  0
   -1.8172    2.1188   -0.0982 H   0  0  0  0  0  0  0  0  0  0  0  0
   -2.6187   -2.7345   -0.9653 H   0  0  0  0  0  0  0  0  0  0  0  0
   -1.1810   -3.2267   -0.0180 H   0  0  0  0  0  0  0  0  0  0  0  0
   -3.0581   -3.9315    1.0717 H   0  0  0  0  0  0  0  0  0  0  0  0
   -2.3312   -2.6839    2.1346 H   0  0  0  0  0  0  0  0  0  0  0  0
   -4.0960   -1.0775    1.3344 H   0  0  0  0  0  0  0  0  0  0  0  0
   -7.1289   -4.0212   -0.4953 H   0  0  0  0  0  0  0  0  0  0  0  0
   -6.2734   -7.8891    0.9868 H   0  0  0  0  0  0  0  0  0  0  0  0
   -4.6735   -6.9459    2.6415 H   0  0  0  0  0  0  0  0  0  0  0  0
   -4.3129   -4.5319    2.7334 H   0  0  0  0  0  0  0  0  0  0  0  0
  1  2  2  0  0  0  0
  1  6  1  0  0  0  0
  1 21  1  0  0  0  0
  2  3  1  0  0  0  0
  2 22  1  0  0  0  0
  3  4  2  0  0  0  0
  3 23  1  0  0  0  0
  4  5  1  0  0  0  0
  4  9  1  0  0  0  0
  5  6  2  0  0  0  0
  5  7  1  0  0  0  0
  6 24  1  0  0  0  0
  7  8  2  0  0  0  0
  7 10  1  0  0  0  0
  8  9  1  0  0  0  0
  8 25  1  0  0  0  0
  9 26  1  0  0  0  0
 10 11  1  0  0  0  0
 10 27  1  0  0  0  0
 10 28  1  0  0  0  0
 11 12  1  0  0  0  0
 11 29  1  0  0  0  0
 11 30  1  0  0  0  0
 12 13  1  0  0  0  0
 12 31  1  0  0  0  0
 13 14  2  0  0  0  0
 13 15  1  0  0  0  0
 15 16  2  0  0  0  0
 15 20  1  0  0  0  0
 16 17  1  0  0  0  0
 16 32  1  0  0  0  0
 17 18  2  0  0  0  0
 18 19  1  0  0  0  0
 18 33  1  0  0  0  0
 19 20  2  0  0  0  0
 19 34  1  0  0  0  0
 20 35  1  0  0  0  0
M  END
$$$$

 OpenBabel05152416213D

 59 64  0  0  0  0  0  0  0  0999 V2000
    1.0683    0.0277   -0.0498 C   0  0  0  0  0  0  0  0  0  0  0  0
    0.6042    0.4342    1.1772 O   0  0  0  0  0  0  0  0  0  0  0  0
    0.9282   -0.1761    2.3510 C   0  0  0  0  0  0  0  0  0  0  0  0
    0.0117   -0.2921    3.3952 C   0  0  0  0  0  0  0  0  0  0  0  0
    0.5217   -0.5900    4.6684 C   0  0  0  0  0  0  0  0  0  0  0  0
    1.7986   -1.0567    4.8656 C   0  0  0  0  0  0  0  0  0  0  0  0
    2.6542   -0.9863    3.8071 C   0  0  0  0  0  0  0  0  0  0  0  0
    2.2187   -0.5885    2.5601 C   0  0  0  0  0  0  0  0  0  0  0  0
    2.1824   -1.6330    6.1790 C   0  0  0  0  0  0  0  0  0  0  0  0
    1.4087   -2.6448    6.8164 C   0  0  0  0  0  0  0  0  0  0  0  0
    1.5671   -2.7027    8.3604 C   0  0  0  0  0  0  0  0  0  0  0  0
    2.7160   -2.3361    8.8245 C   0  0  0  0  0  0  0  0  0  0  0  0
    3.4366   -1.3946    8.1908 C   0  0  0  0  0  0  0  0  0  0  0  0
    3.2083   -1.0643    6.8767 C   0  0  0  0  0  0  0  0  0  0  0  0
    3.1342   -2.8861   10.1419 C   0  0  0  0  0  0  0  0  0  0  0  0
    2.6248   -4.1162   10.7610 C   0  0  0  0  0  0  0  0  0  0  0  0
    2.0684   -3.6659   11.4271 C   0  0  0  0  0  0  0  0  0  0  0  0
    0.7770   -2.8206    9.8847 C   0  0  0  0  0  0  0  0  0  0  0  0
    1.3326   -5.0463    9.9000 C   0  0  0  0  0  0  0  0  0  0  0  0
    0.8095   -4.8710    8.6762 O   0  0  0  0  0  0  0  0  0  0  0  0
    0.1931   -5.3908   10.6608 O   0  0  0  0  0  0  0  0  0  0  0  0
   -1.4789   -0.1335    3.1571 C   0  0  0  0  0  0  0  0  0  0  0  0
   -1.9670   -1.2023    2.1541 C   0  0  0  0  0  0  0  0  0  0  0  0
   -3.4655   -1.0476    1.9117 C   0  0  0  0  0  0  0  0  0  0  0  0
   -3.7465    0.3436    1.3543 C   0  0  0  0  0  0  0  0  0  0  0  0
   -3.2784    1.3988    2.3509 C   0  0  0  0  0  0  0  0  0  0  0  0
   -1.7829    1.2435    2.5929 C   0  0  0  0  0  0  0  0  0  0  0  0
   -4.0242    1.2183    3.6683 C   0  0  0  0  0  0  0  0  0  0  0  0
   -3.7459   -0.1719    4.2281 C   0  0  0  0  0  0  0  0  0  0  0  0
   -4.2121   -1.2252    3.2298 C   0  0  0  0  0  0  0  0  0  0  0  0
   -2.2558   -0.3274    4.4643 C   0  0  0  0  0  0  0  0  0  0  0  0
    0.7090    0.6693   -0.8531 H   0  0  0  0  0  0  0  0  0  0  0  0
    0.7114   -0.9865   -0.2354 H   0  0  0  0  0  0  0  0  0  0  0  0
    2.1522    0.0236   -0.0758 H   0  0  0  0  0  0  0  0  0  0  0  0
   -0.0657   -0.4286    5.5307 H   0  0  0  0  0  0  0  0  0  0  0  0
    3.6731   -1.2317    3.9489 H   0  0  0  0  0  0  0  0  0  0  0  0
    2.8899   -0.5963    1.7415 H   0  0  0  0  0  0  0  0  0  0  0  0
    0.7109   -3.2149    6.1969 H   0  0  0  0  0  0  0  0  0  0  0  0
    4.1973   -0.8982    8.7380 H   0  0  0  0  0  0  0  0  0  0  0  0
    3.8428   -0.3701    6.3872 H   0  0  0  0  0  0  0  0  0  0  0  0
    3.8485   -2.3725   10.6680 H   0  0  0  0  0  0  0  0  0  0  0  0
    3.0565   -3.7710   12.5972 H   0  0  0  0  0  0  0  0  0  0  0  0
   -0.1704   -3.3356    9.7223 H   0  0  0  0  0  0  0  0  0  0  0  0
   -0.6398   -5.7260   10.1887 H   0  0  0  0  0  0  0  0  0  0  0  0
   -1.4351   -1.0857    1.2125 H   0  0  0  0  0  0  0  0  0  0  0  0
   -1.7635   -2.1979    2.5454 H   0  0  0  0  0  0  0  0  0  0  0  0
   -3.7992   -1.7990    1.1994 H   0  0  0  0  0  0  0  0  0  0  0  0
   -4.8139    0.4573    1.1768 H   0  0  0  0  0  0  0  0  0  0  0  0
   -3.2210    0.4728    0.4107 H   0  0  0  0  0  0  0  0  0  0  0  0
   -3.4790    2.3904    1.9516 H   0  0  0  0  0  0  0  0  0  0  0  0
   -1.4405    1.9953    3.2966 H   0  0  0  0  0  0  0  0  0  0  0  0
   -1.2611    1.3829    1.6565 H   0  0  0  0  0  0  0  0  0  0  0  0
   -3.6958    1.9723    4.3804 H   0  0  0  0  0  0  0  0  0  0  0  0
   -5.0926    1.3375    3.5028 H   0  0  0  0  0  0  0  0  0  0  0  0
   -4.2774   -0.2997    5.1680 H   0  0  0  0  0  0  0  0  0  0  0  0
   -5.2819   -1.1199    3.0618 H   0  0  0  0  0  0  0  0  0  0  0  0
   -4.0193   -2.2187    3.6290 H   0  0  0  0  0  0  0  0  0  0  0  0
   -2.0458   -1.3191    4.8714 H   0  0  0  0  0  0  0  0  0  0  0  0
   -1.9186    0.4200    5.1823 H   0  0  0  0  0  0  0  0  0  0  0  0
  1  2  1  0  0  0  0
  1 32  1  0  0  0  0
  1 33  1  0  0  0  0
  1 34  1  0  0  0  0
  2  3  1  0  0  0  0
  3  4  2  0  0  0  0
  3  8  1  0  0  0  0
  4  5  1  0  0  0  0
  4 22  1  0  0  0  0
  5  6  2  0  0  0  0
  5 35  1  0  0  0  0
  6  7  1  0  0  0  0
  6  9  1  0  0  0  0
  7  8  2  0  0  0  0
  7 36  1  0  0  0  0
  8 37  1  0  0  0  0
  9 10  2  0  0  0  0
  9 14  1  0  0  0  0
 10 11  1  0  0  0  0
 10 38  1  0  0  0  0
 11 12  2  0  0  0  0
 11 18  1  0  0  0  0
 12 13  1  0  0  0  0
 12 15  1  0  0  0  0
 13 14  2  0  0  0  0
 13 39  1  0  0  0  0
 14 40  1  0  0  0  0
 15 16  2  0  0  0  0
 15 41  1  0  0  0  0
 16 17  1  0  0  0  0
 16 19  1  0  0  0  0
 17 18  2  0  0  0  0
 17 42  1  0  0  0  0
 18 43  1  0  0  0  0
 19 20  2  0  0  0  0
 19 21  1  0  0  0  0
 21 44  1  0  0  0  0
 22 23  1  0  0  0  0
 22 27  1  0  0  0  0
 22 31  1  0  0  0  0
 23 24  1  0  0  0  0
 23 45  1  0  0  0  0
 23 46  1  0  0  0  0
 24 25  1  0  0  0  0
 24 30  1  0  0  0  0
 24 47  1  0  0  0  0
 25 26  1  0  0  0  0
 25 48  1  0  0  0  0
 25 49  1  0  0  0  0
 26 27  1  0  0  0  0
 26 28  1  0  0  0  0
 26 50  1  0  0  0  0
 27 51  1  0  0  0  0
 27 52  1  0  0  0  0
 28 29  1  0  0  0  0
 28 53  1  0  0  0  0
 28 54  1  0  0  0  0
 29 30  1  0  0  0  0
 29 31  1  0  0  0  0
 29 55  1  0  0  0  0
 30 56  1  0  0  0  0
 30 57  1  0  0  0  0
 31 58  1  0  0  0  0
 31 59  1  0  0  0  0
M  END
$$$$

 OpenBabel05152416213D

 48 51  0  0  0  0  0  0  0  0999 V2000
    1.4378    1.1375   -0.1285 C   0  0  0  0  0  0  0  0  0  0  0  0
    0.9927    2.5215    0.7133 C   0  0  0  0  0  0  0  0  0  0  0  0
   -0.5077    2.4056    0.2260 C   0  0  0  0  0  0  0  0  0  0  0  0
   -0.4551    3.0157   -1.2135 C   0  0  0  0  0  0  0  0  0  0  0  0
   -0.2827    4.4414   -1.0781 C   0  0  0  0  0  0  0  0  0  0  0  0
   -1.2091    5.0805   -0.6495 O   0  0  0  0  0  0  0  0  0  0  0  0
    1.0517    4.7802   -0.5153 C   0  0  0  0  0  0  0  0  0  0  0  0
    1.4205    4.0876    0.5141 C   0  0  0  0  0  0  0  0  0  0  0  0
    2.2021    5.2504    1.3979 C   0  0  0  0  0  0  0  0  0  0  0  0
    2.2189    4.9462    2.8080 C   0  0  0  0  0  0  0  0  0  0  0  0
    2.4012    3.4152    2.7975 C   0  0  0  0  0  0  0  0  0  0  0  0
    1.3794    2.1819    2.1393 C   0  0  0  0  0  0  0  0  0  0  0  0
    1.7900    0.6150    2.4566 C   0  0  0  0  0  0  0  0  0  0  0  0
    2.1159    0.5283    3.8630 C   0  0  0  0  0  0  0  0  0  0  0  0
    3.0461    1.6804    4.2451 C   0  0  0  0  0  0  0  0  0  0  0  0
    2.5327    3.1210    4.1482 C   0  0  0  0  0  0  0  0  0  0  0  0
    1.1451    3.3377    4.7939 C   0  0  0  0  0  0  0  0  0  0  0  0
    1.1901    2.3764    5.9292 C   0  0  0  0  0  0  0  0  0  0  0  0
    2.6392    1.7464    5.7105 C   0  0  0  0  0  0  0  0  0  0  0  0
    3.4450    1.6586    6.6172 O   0  0  0  0  0  0  0  0  0  0  0  0
    4.3281    1.5023    3.1303 C   0  0  0  0  0  0  0  0  0  0  0  0
    1.9801    5.3953   -1.1795 O   0  0  0  0  0  0  0  0  0  0  0  0
    1.0411    0.8918   -1.1336 H   0  0  0  0  0  0  0  0  0  0  0  0
    0.8604    0.2565    0.2970 H   0  0  0  0  0  0  0  0  0  0  0  0
    2.4686    0.7414   -0.0982 H   0  0  0  0  0  0  0  0  0  0  0  0
   -1.2332    2.8868    0.9029 H   0  0  0  0  0  0  0  0  0  0  0  0
   -0.9216    1.3736    0.1100 H   0  0  0  0  0  0  0  0  0  0  0  0
   -1.3368    2.8231   -1.8338 H   0  0  0  0  0  0  0  0  0  0  0  0
    0.4422    2.6975   -1.7941 H   0  0  0  0  0  0  0  0  0  0  0  0
    1.8011    6.3024    1.3937 H   0  0  0  0  0  0  0  0  0  0  0  0
    3.2559    5.3783    1.0977 H   0  0  0  0  0  0  0  0  0  0  0  0
    1.3825    5.4367    3.3616 H   0  0  0  0  0  0  0  0  0  0  0  0
    3.0994    5.5143    3.2881 H   0  0  0  0  0  0  0  0  0  0  0  0
    3.4055    3.4779    2.3363 H   0  0  0  0  0  0  0  0  0  0  0  0
    0.3900    2.0913    2.5793 H   0  0  0  0  0  0  0  0  0  0  0  0
    2.6373    0.1286    1.9193 H   0  0  0  0  0  0  0  0  0  0  0  0
    1.0064   -0.1781    2.3121 H   0  0  0  0  0  0  0  0  0  0  0  0
    1.1106    0.5524    4.2663 H   0  0  0  0  0  0  0  0  0  0  0  0
    2.5292   -0.4420    4.2374 H   0  0  0  0  0  0  0  0  0  0  0  0
    3.2601    3.8102    4.6872 H   0  0  0  0  0  0  0  0  0  0  0  0
    0.8107    4.3594    5.0610 H   0  0  0  0  0  0  0  0  0  0  0  0
    0.2810    3.2633    4.0808 H   0  0  0  0  0  0  0  0  0  0  0  0
    0.1128    2.1106    5.7076 H   0  0  0  0  0  0  0  0  0  0  0  0
    0.5767    1.4573    5.9244 H   0  0  0  0  0  0  0  0  0  0  0  0
    3.9763    1.6367    2.0448 H   0  0  0  0  0  0  0  0  0  0  0  0
    5.1189    2.2830    2.9923 H   0  0  0  0  0  0  0  0  0  0  0  0
    4.7108    0.4901    2.8824 H   0  0  0  0  0  0  0  0  0  0  0  0
    2.9327    5.0865   -1.0008 H   0  0  0  0  0  0  0  0  0  0  0  0
  1  2  1  0  0  0  0
  1 23  1  0  0  0  0
  1 24  1  0  0  0  0
  1 25  1  0  0  0  0
  2  3  1  0  0  0  0
  2  8  1  0  0  0  0
  2 12  1  0  0  0  0
  3  4  1  0  0  0  0
  3 26  1  0  0  0  0
  3 27  1  0  0  0  0
  4  5  1  0  0  0  0
  4 28  1  0  0  0  0
  4 29  1  0  0  0  0
  5  6  2  0  0  0  0
  5  7  1  0  0  0  0
  7  8  2  0  0  0  0
  7 22  1  0  0  0  0
  8  9  1  0  0  0  0
  9 10  1  0  0  0  0
  9 30  1  0  0  0  0
  9 31  1  0  0  0  0
 10 11  1  0  0  0  0
 10 32  1  0  0  0  0
 10 33  1  0  0  0  0
 11 12  1  0  0  0  0
 11 16  1  0  0  0  0
 11 34  1  0  0  0  0
 12 13  1  0  0  0  0
 12 35  1  0  0  0  0
 13 14  1  0  0  0  0
 13 36  1  0  0  0  0
 13 37  1  0  0  0  0
 14 15  1  0  0  0  0
 14 38  1  0  0  0  0
 14 39  1  0  0  0  0
 15 16  1  0  0  0  0
 15 19  1  0  0  0  0
 15 21  1  0  0  0  0
 16 17  1  0  0  0  0
 16 40  1  0  0  0  0
 17 18  1  0  0  0  0
 17 41  1  0  0  0  0
 17 42  1  0  0  0  0
 18 19  1  0  0  0  0
 18 43  1  0  0  0  0
 18 44  1  0  0  0  0
 19 20  2  0  0  0  0
 21 45  1  0  0  0  0
 21 46  1  0  0  0  0
 21 47  1  0  0  0  0
 22 48  1  0  0  0  0
M  END
$$$$

 OpenBabel05152416213D

 33 33  0  0  0  0  0  0  0  0999 V2000
    1.7275    1.8045    0.2927 C   0  0  0  0  0  0  0  0  0  0  0  0
    0.5674    0.7911    0.2269 C   0  0  0  0  0  0  0  0  0  0  0  0
    0.6547   -0.6676    0.2451 C   0  0  0  0  0  0  0  0  0  0  0  0
   -0.5725   -1.4221    0.1009 C   0  0  0  0  0  0  0  0  0  0  0  0
   -1.8063   -0.7367    0.0193 C   0  0  0  0  0  0  0  0  0  0  0  0
   -1.8654    0.6471    0.0389 C   0  0  0  0  0  0  0  0  0  0  0  0
   -0.7039    1.3931    0.1283 C   0  0  0  0  0  0  0  0  0  0  0  0
   -0.6385   -2.9608    0.0339 C   0  0  0  0  0  0  0  0  0  0  0  0
   -0.0645   -3.5111   -1.3014 C   0  0  0  0  0  0  0  0  0  0  0  0
    0.0141   -3.5630    1.2548 C   0  0  0  0  0  0  0  0  0  0  0  0
   -0.3127   -3.2717    2.5700 C   0  0  0  0  0  0  0  0  0  0  0  0
    0.5366   -3.9209    3.3842 N   0  0  0  0  0  0  0  0  0  0  0  0
    1.3661   -4.6028    2.5543 C   0  0  0  0  0  0  0  0  0  0  0  0
    1.0579   -4.4007    1.2665 N   0  0  0  0  0  0  0  0  0  0  0  0
    1.9735   -1.4667    0.4262 C   0  0  0  0  0  0  0  0  0  0  0  0
    2.1254   -0.0599   -2.4802 Cl  0  0  0  0  0  0  0  0  0  0  0  0
    2.3663    1.6580    1.1801 H   0  0  0  0  0  0  0  0  0  0  0  0
    2.3709    1.8730   -0.6019 H   0  0  0  0  0  0  0  0  0  0  0  0
    1.3542    2.8568    0.3050 H   0  0  0  0  0  0  0  0  0  0  0  0
   -2.7470   -1.2719   -0.0719 H   0  0  0  0  0  0  0  0  0  0  0  0
   -2.8227    1.1559   -0.0330 H   0  0  0  0  0  0  0  0  0  0  0  0
   -0.8103    2.4723    0.1129 H   0  0  0  0  0  0  0  0  0  0  0  0
   -1.7022   -3.2926    0.0359 H   0  0  0  0  0  0  0  0  0  0  0  0
    0.9941   -3.3194   -1.5001 H   0  0  0  0  0  0  0  0  0  0  0  0
   -0.1520   -4.6157   -1.3289 H   0  0  0  0  0  0  0  0  0  0  0  0
   -0.6073   -3.0759   -2.1660 H   0  0  0  0  0  0  0  0  0  0  0  0
   -1.0895   -2.5976    2.9065 H   0  0  0  0  0  0  0  0  0  0  0  0
    2.1893   -5.2092    2.8977 H   0  0  0  0  0  0  0  0  0  0  0  0
    1.5776   -4.7980    0.4410 H   0  0  0  0  0  0  0  0  0  0  0  0
    1.9491   -2.0971    1.3292 H   0  0  0  0  0  0  0  0  0  0  0  0
    2.1747   -2.1127   -0.4386 H   0  0  0  0  0  0  0  0  0  0  0  0
    2.9343   -0.9516    0.5591 H   0  0  0  0  0  0  0  0  0  0  0  0
    2.8599    0.0276   -1.3241 H   0  0  0  0  0  0  0  0  0  0  0  0
  1  2  1  0  0  0  0
  1 17  1  0  0  0  0
  1 18  1  0  0  0  0
  1 19  1  0  0  0  0
  2  3  2  0  0  0  0
  2  7  1  0  0  0  0
  3  4  1  0  0  0  0
  3 15  1  0  0  0  0
  4  5  2  0  0  0  0
  4  8  1  0  0  0  0
  5  6  1  0  0  0  0
  5 20  1  0  0  0  0
  6  7  2  0  0  0  0
  6 21  1  0  0  0  0
  7 22  1  0  0  0  0
  8  9  1  0  0  0  0
  8 10  1  0  0  0  0
  8 23  1  0  0  0  0
  9 24  1  0  0  0  0
  9 25  1  0  0  0  0
  9 26  1  0  0  0  0
 10 11  2  0  0  0  0
 10 14  1  0  0  0  0
 11 12  1  0  0  0  0
 11 27  1  0  0  0  0
 12 13  2  0  0  0  0
 13 14  1  0  0  0  0
 13 28  1  0  0  0  0
 14 29  1  0  0  0  0
 15 30  1  0  0  0  0
 15 31  1  0  0  0  0
 15 32  1  0  0  0  0
 16 33  1  0  0  0  0
M  END
$$$$

 OpenBabel05152416213D

 45 47  0  0  0  0  0  0  0  0999 V2000
   -3.4786    0.0861    0.0821 C   0  0  0  0  0  0  0  0  0  0  0  0
   -2.0001   -0.2261    0.0198 C   0  0  0  0  0  0  0  0  0  0  0  0
   -1.5285   -1.5589    0.0480 C   0  0  0  0  0  0  0  0  0  0  0  0
   -0.2211   -1.8026    0.0642 O   0  0  0  0  0  0  0  0  0  0  0  0
    0.7080   -0.8490    0.0427 C   0  0  0  0  0  0  0  0  0  0  0  0
    0.3183    0.5032    0.0272 C   0  0  0  0  0  0  0  0  0  0  0  0
   -1.0509    0.8143    0.0087 C   0  0  0  0  0  0  0  0  0  0  0  0
   -1.4134    1.9776   -0.0076 O   0  0  0  0  0  0  0  0  0  0  0  0
    1.2961    1.5074    0.0352 C   0  0  0  0  0  0  0  0  0  0  0  0
    2.6437    1.1740    0.0555 C   0  0  0  0  0  0  0  0  0  0  0  0
    3.0575   -0.1710    0.0416 C   0  0  0  0  0  0  0  0  0  0  0  0
    2.0793   -1.1946    0.0239 C   0  0  0  0  0  0  0  0  0  0  0  0
    2.4961   -2.6515   -0.0577 C   0  0  0  0  0  0  0  0  0  0  0  0
    3.2836   -2.9112   -1.2838 N   0  0  0  0  0  0  0  0  0  0  0  0
    3.6943   -4.3235   -1.3231 C   0  0  0  0  0  0  0  0  0  0  0  0
    2.5146   -2.5942   -2.5026 C   0  0  0  0  0  0  0  0  0  0  0  0
    4.3791   -0.4999    0.0390 O   0  0  0  0  0  0  0  0  0  0  0  0
    5.4164    0.4137    0.0731 C   0  0  0  0  0  0  0  0  0  0  0  0
   -2.4379   -2.7250    0.0612 C   0  0  0  0  0  0  0  0  0  0  0  0
   -2.3204   -3.7014    1.0643 C   0  0  0  0  0  0  0  0  0  0  0  0
   -3.1688   -4.8152    1.0635 C   0  0  0  0  0  0  0  0  0  0  0  0
   -4.1243   -4.9683    0.0543 C   0  0  0  0  0  0  0  0  0  0  0  0
   -4.2391   -4.0059   -0.9500 C   0  0  0  0  0  0  0  0  0  0  0  0
   -3.4028   -2.8897   -0.9464 C   0  0  0  0  0  0  0  0  0  0  0  0
   -4.0225   -0.3150   -0.7893 H   0  0  0  0  0  0  0  0  0  0  0  0
   -3.8937   -0.3590    1.0119 H   0  0  0  0  0  0  0  0  0  0  0  0
   -3.6825    1.1744    0.1065 H   0  0  0  0  0  0  0  0  0  0  0  0
    1.0243    2.5545    0.0326 H   0  0  0  0  0  0  0  0  0  0  0  0
    3.3605    1.9827    0.0708 H   0  0  0  0  0  0  0  0  0  0  0  0
    3.1051   -2.8900    0.8411 H   0  0  0  0  0  0  0  0  0  0  0  0
    1.6114   -3.3275   -0.0417 H   0  0  0  0  0  0  0  0  0  0  0  0
    2.8076   -4.9966   -1.3580 H   0  0  0  0  0  0  0  0  0  0  0  0
    4.3238   -4.5164   -2.2186 H   0  0  0  0  0  0  0  0  0  0  0  0
    4.3015   -4.5747   -0.4276 H   0  0  0  0  0  0  0  0  0  0  0  0
    1.5853   -3.2027   -2.5607 H   0  0  0  0  0  0  0  0  0  0  0  0
    2.2407   -1.5185   -2.5289 H   0  0  0  0  0  0  0  0  0  0  0  0
    3.1340   -2.7786   -3.4064 H   0  0  0  0  0  0  0  0  0  0  0  0
    5.3673    1.0798   -0.8158 H   0  0  0  0  0  0  0  0  0  0  0  0
    5.3544    1.0230    1.0012 H   0  0  0  0  0  0  0  0  0  0  0  0
    6.3890   -0.1167    0.0631 H   0  0  0  0  0  0  0  0  0  0  0  0
   -1.5897   -3.5904    1.8569 H   0  0  0  0  0  0  0  0  0  0  0  0
   -3.0849   -5.5622    1.8421 H   0  0  0  0  0  0  0  0  0  0  0  0
   -4.7722   -5.8346    0.0453 H   0  0  0  0  0  0  0  0  0  0  0  0
   -4.9695   -4.1257   -1.7393 H   0  0  0  0  0  0  0  0  0  0  0  0
   -3.4883   -2.1750   -1.7524 H   0  0  0  0  0  0  0  0  0  0  0  0
  1  2  1  0  0  0  0
  1 25  1  0  0  0  0
  1 26  1  0  0  0  0
  1 27  1  0  0  0  0
  2  3  2  0  0  0  0
  2  7  1  0  0  0  0
  3  4  1  0  0  0  0
  3 19  1  0  0  0  0
  4  5  1  0  0  0  0
  5  6  2  0  0  0  0
  5 12  1  0  0  0  0
  6  7  1  0  0  0  0
  6  9  1  0  0  0  0
  7  8  2  0  0  0  0
  9 10  2  0  0  0  0
  9 28  1  0  0  0  0
 10 11  1  0  0  0  0
 10 29  1  0  0  0  0
 11 12  2  0  0  0  0
 11 17  1  0  0  0  0
 12 13  1  0  0  0  0
 13 14  1  0  0  0  0
 13 30  1  0  0  0  0
 13 31  1  0  0  0  0
 14 15  1  0  0  0  0
 14 16  1  0  0  0  0
 15 32  1  0  0  0  0
 15 33  1  0  0  0  0
 15 34  1  0  0  0  0
 16 35  1  0  0  0  0
 16 36  1  0  0  0  0
 16 37  1  0  0  0  0
 17 18  1  0  0  0  0
 18 38  1  0  0  0  0
 18 39  1  0  0  0  0
 18 40  1  0  0  0  0
 19 20  2  0  0  0  0
 19 24  1  0  0  0  0
 20 21  1  0  0  0  0
 20 41  1  0  0  0  0
 21 22  2  0  0  0  0
 21 42  1  0  0  0  0
 22 23  1  0  0  0  0
 22 43  1  0  0  0  0
 23 24  2  0  0  0  0
 23 44  1  0  0  0  0
 24 45  1  0  0  0  0
M  END
$$$$

 OpenBabel05152416213D

 48 50  0  0  0  0  0  0  0  0999 V2000
    0.9654    0.0096    0.1317 C   0  0  0  0  0  0  0  0  0  0  0  0
    0.4878    0.0225   -1.1636 O   0  0  0  0  0  0  0  0  0  0  0  0
    0.9202    0.9009   -2.0892 C   0  0  0  0  0  0  0  0  0  0  0  0
    0.0059    1.4215   -2.9946 C   0  0  0  0  0  0  0  0  0  0  0  0
    0.3916    2.3928   -3.9018 C   0  0  0  0  0  0  0  0  0  0  0  0
    1.7093    2.9078   -3.9400 C   0  0  0  0  0  0  0  0  0  0  0  0
    2.6399    2.3126   -3.0497 C   0  0  0  0  0  0  0  0  0  0  0  0
    2.2543    1.3288   -2.1507 C   0  0  0  0  0  0  0  0  0  0  0  0
    2.1387    4.0676   -4.8247 C   0  0  0  0  0  0  0  0  0  0  0  0
    1.2883    4.8200   -5.6341 C   0  0  0  0  0  0  0  0  0  0  0  0
    1.8067    5.8726   -6.5355 C   0  0  0  0  0  0  0  0  0  0  0  0
    1.1243    7.0915   -6.6956 C   0  0  0  0  0  0  0  0  0  0  0  0
    1.6579    8.0874   -7.5126 C   0  0  0  0  0  0  0  0  0  0  0  0
    2.8797    7.8795   -8.1746 C   0  0  0  0  0  0  0  0  0  0  0  0
    3.5260    6.6389   -8.0419 C   0  0  0  0  0  0  0  0  0  0  0  0
    2.9890    5.6546   -7.2550 C   0  0  0  0  0  0  0  0  0  0  0  0
    3.4202    8.8741   -8.9108 O   0  0  0  0  0  0  0  0  0  0  0  0
    4.6754    8.7949   -9.4840 C   0  0  0  0  0  0  0  0  0  0  0  0
   -0.4654    4.6696   -5.8227 Cl  0  0  0  0  0  0  0  0  0  0  0  0
    3.5892    4.5064   -4.7475 C   0  0  0  0  0  0  0  0  0  0  0  0
    3.9286    5.8498   -4.4513 C   0  0  0  0  0  0  0  0  0  0  0  0
    5.2593    6.2825   -4.4965 C   0  0  0  0  0  0  0  0  0  0  0  0
    6.2827    5.3849   -4.8275 C   0  0  0  0  0  0  0  0  0  0  0  0
    5.9480    4.0467   -5.1124 C   0  0  0  0  0  0  0  0  0  0  0  0
    4.6244    3.6144   -5.0696 C   0  0  0  0  0  0  0  0  0  0  0  0
    7.5665    5.8267   -4.8555 O   0  0  0  0  0  0  0  0  0  0  0  0
    8.6637    5.0163   -5.0785 C   0  0  0  0  0  0  0  0  0  0  0  0
    0.5084   -0.8315    0.6831 H   0  0  0  0  0  0  0  0  0  0  0  0
    0.6872    0.9669    0.6279 H   0  0  0  0  0  0  0  0  0  0  0  0
    2.0649   -0.1106    0.1616 H   0  0  0  0  0  0  0  0  0  0  0  0
   -1.0308    1.1062   -2.9749 H   0  0  0  0  0  0  0  0  0  0  0  0
   -0.4002    2.7116   -4.5207 H   0  0  0  0  0  0  0  0  0  0  0  0
    3.6747    2.6092   -2.9971 H   0  0  0  0  0  0  0  0  0  0  0  0
    3.0051    0.9218   -1.4898 H   0  0  0  0  0  0  0  0  0  0  0  0
    0.2002    7.2823   -6.1602 H   0  0  0  0  0  0  0  0  0  0  0  0
    1.1325    9.0290   -7.6095 H   0  0  0  0  0  0  0  0  0  0  0  0
    4.4598    6.4160   -8.5362 H   0  0  0  0  0  0  0  0  0  0  0  0
    3.5171    4.7143   -7.2045 H   0  0  0  0  0  0  0  0  0  0  0  0
    5.4339    8.6007   -8.6914 H   0  0  0  0  0  0  0  0  0  0  0  0
    4.7027    7.9704  -10.2298 H   0  0  0  0  0  0  0  0  0  0  0  0
    4.9194    9.7484   -9.9835 H   0  0  0  0  0  0  0  0  0  0  0  0
    3.1560    6.5690   -4.2025 H   0  0  0  0  0  0  0  0  0  0  0  0
    5.4941    7.3203   -4.2827 H   0  0  0  0  0  0  0  0  0  0  0  0
    6.7074    3.3293   -5.3872 H   0  0  0  0  0  0  0  0  0  0  0  0
    4.4018    2.5889   -5.3275 H   0  0  0  0  0  0  0  0  0  0  0  0
    8.6831    4.2056   -4.3183 H   0  0  0  0  0  0  0  0  0  0  0  0
    8.6187    4.5737   -6.0974 H   0  0  0  0  0  0  0  0  0  0  0  0
    9.5961    5.6069   -4.9833 H   0  0  0  0  0  0  0  0  0  0  0  0
  1  2  1  0  0  0  0
  1 28  1  0  0  0  0
  1 29  1  0  0  0  0
  1 30  1  0  0  0  0
  2  3  1  0  0  0  0
  3  4  2  0  0  0  0
  3  8  1  0  0  0  0
  4  5  1  0  0  0  0
  4 31  1  0  0  0  0
  5  6  2  0  0  0  0
  5 32  1  0  0  0  0
  6  7  1  0  0  0  0
  6  9  1  0  0  0  0
  7  8  2  0  0  0  0
  7 33  1  0  0  0  0
  8 34  1  0  0  0  0
  9 10  2  0  0  0  0
  9 20  1  0  0  0  0
 10 11  1  0  0  0  0
 10 19  1  0  0  0  0
 11 12  2  0  0  0  0
 11 16  1  0  0  0  0
 12 13  1  0  0  0  0
 12 35  1  0  0  0  0
 13 14  2  0  0  0  0
 13 36  1  0  0  0  0
 14 15  1  0  0  0  0
 14 17  1  0  0  0  0
 15 16  2  0  0  0  0
 15 37  1  0  0  0  0
 16 38  1  0  0  0  0
 17 18  1  0  0  0  0
 18 39  1  0  0  0  0
 18 40  1  0  0  0  0
 18 41  1  0  0  0  0
 20 21  2  0  0  0  0
 20 25  1  0  0  0  0
 21 22  1  0  0  0  0
 21 42  1  0  0  0  0
 22 23  2  0  0  0  0
 22 43  1  0  0  0  0
 23 24  1  0  0  0  0
 23 26  1  0  0  0  0
 24 25  2  0  0  0  0
 24 44  1  0  0  0  0
 25 45  1  0  0  0  0
 26 27  1  0  0  0  0
 27 46  1  0  0  0  0
 27 47  1  0  0  0  0
 27 48  1  0  0  0  0
M  END
$$$$

 OpenBabel05152416213D

 22 23  0  0  0  0  0  0  0  0999 V2000
    1.3862   -0.2006    0.0248 C   0  0  0  0  0  0  0  0  0  0  0  0
    0.8768    1.0946   -0.0111 C   0  0  0  0  0  0  0  0  0  0  0  0
   -0.5033    1.3011   -0.0446 C   0  0  0  0  0  0  0  0  0  0  0  0
   -1.3941    0.2143   -0.0138 C   0  0  0  0  0  0  0  0  0  0  0  0
   -0.8781   -1.1110    0.0508 C   0  0  0  0  0  0  0  0  0  0  0  0
    0.5208   -1.2930    0.0545 C   0  0  0  0  0  0  0  0  0  0  0  0
   -1.7824   -2.3272    0.0461 C   0  0  0  0  0  0  0  0  0  0  0  0
   -2.5337   -2.3671    1.2000 F   0  0  0  0  0  0  0  0  0  0  0  0
   -2.6180   -2.2809   -1.0559 F   0  0  0  0  0  0  0  0  0  0  0  0
   -1.0620   -3.5066   -0.0075 F   0  0  0  0  0  0  0  0  0  0  0  0
   -2.8075    0.4767   -0.1389 N   0  0  0  0  0  0  0  0  0  0  0  0
   -3.8227    0.0782    0.6463 C   0  0  0  0  0  0  0  0  0  0  0  0
   -4.9955    0.5378    0.0906 C   0  0  0  0  0  0  0  0  0  0  0  0
   -4.7157    1.2281   -1.0314 N   0  0  0  0  0  0  0  0  0  0  0  0
   -3.3713    1.1834   -1.1378 C   0  0  0  0  0  0  0  0  0  0  0  0
    2.4567   -0.3630    0.0244 H   0  0  0  0  0  0  0  0  0  0  0  0
    1.5532    1.9396   -0.0275 H   0  0  0  0  0  0  0  0  0  0  0  0
   -0.8838    2.3144   -0.0838 H   0  0  0  0  0  0  0  0  0  0  0  0
    0.9547   -2.2839    0.0700 H   0  0  0  0  0  0  0  0  0  0  0  0
   -3.7414   -0.4821    1.5635 H   0  0  0  0  0  0  0  0  0  0  0  0
   -5.9912    0.3810    0.4819 H   0  0  0  0  0  0  0  0  0  0  0  0
   -2.8209    1.6263   -1.9576 H   0  0  0  0  0  0  0  0  0  0  0  0
  1  2  2  0  0  0  0
  1  6  1  0  0  0  0
  1 16  1  0  0  0  0
  2  3  1  0  0  0  0
  2 17  1  0  0  0  0
  3  4  2  0  0  0  0
  3 18  1  0  0  0  0
  4  5  1  0  0  0  0
  4 11  1  0  0  0  0
  5  6  2  0  0  0  0
  5  7  1  0  0  0  0
  6 19  1  0  0  0  0
  7  8  1  0  0  0  0
  7  9  1  0  0  0  0
  7 10  1  0  0  0  0
 11 12  1  0  0  0  0
 11 15  1  0  0  0  0
 12 13  2  0  0  0  0
 12 20  1  0  0  0  0
 13 14  1  0  0  0  0
 13 21  1  0  0  0  0
 14 15  2  0  0  0  0
 15 22  1  0  0  0  0
M  END
$$$$

 OpenBabel05152416213D

 30 31  0  0  0  0  0  0  0  0999 V2000
    1.0039    0.0969   -0.0382 C   0  0  0  0  0  0  0  0  0  0  0  0
    0.4955    1.3263    0.3414 O   0  0  0  0  0  0  0  0  0  0  0  0
   -0.5979    1.5555    1.1154 C   0  0  0  0  0  0  0  0  0  0  0  0
   -0.9301    2.8787    1.4245 C   0  0  0  0  0  0  0  0  0  0  0  0
   -2.0560    3.1918    2.1985 C   0  0  0  0  0  0  0  0  0  0  0  0
   -2.8890    2.1445    2.6932 C   0  0  0  0  0  0  0  0  0  0  0  0
   -2.5350    0.8156    2.3621 C   0  0  0  0  0  0  0  0  0  0  0  0
   -1.4170    0.5261    1.5958 C   0  0  0  0  0  0  0  0  0  0  0  0
   -4.1528    2.3749    3.4751 C   0  0  0  0  0  0  0  0  0  0  0  0
   -4.6408    3.4908    3.5591 O   0  0  0  0  0  0  0  0  0  0  0  0
   -4.9297    1.2613    4.0601 C   0  0  0  0  0  0  0  0  0  0  0  0
   -6.3005    1.1658    3.7741 C   0  0  0  0  0  0  0  0  0  0  0  0
   -7.0580    0.1190    4.2990 C   0  0  0  0  0  0  0  0  0  0  0  0
   -6.4580   -0.8266    5.1340 C   0  0  0  0  0  0  0  0  0  0  0  0
   -5.0961   -0.7339    5.4360 C   0  0  0  0  0  0  0  0  0  0  0  0
   -4.3230    0.3037    4.8986 C   0  0  0  0  0  0  0  0  0  0  0  0
   -3.0099    0.4046    5.1990 O   0  0  0  0  0  0  0  0  0  0  0  0
   -2.2843    4.5069    2.4248 O   0  0  0  0  0  0  0  0  0  0  0  0
    0.6311   -0.1601   -1.0518 H   0  0  0  0  0  0  0  0  0  0  0  0
    0.7570   -0.7128    0.6747 H   0  0  0  0  0  0  0  0  0  0  0  0
    2.1095    0.1570   -0.0608 H   0  0  0  0  0  0  0  0  0  0  0  0
   -0.3088    3.6826    1.0489 H   0  0  0  0  0  0  0  0  0  0  0  0
   -3.1303   -0.0310    2.6678 H   0  0  0  0  0  0  0  0  0  0  0  0
   -1.2264   -0.5135    1.3787 H   0  0  0  0  0  0  0  0  0  0  0  0
   -6.7748    1.8885    3.1190 H   0  0  0  0  0  0  0  0  0  0  0  0
   -8.1101    0.0426    4.0568 H   0  0  0  0  0  0  0  0  0  0  0  0
   -7.0499   -1.6303    5.5491 H   0  0  0  0  0  0  0  0  0  0  0  0
   -4.6404   -1.4651    6.0906 H   0  0  0  0  0  0  0  0  0  0  0  0
   -2.5488   -0.2365    5.7568 H   0  0  0  0  0  0  0  0  0  0  0  0
   -2.9972    4.8838    2.9481 H   0  0  0  0  0  0  0  0  0  0  0  0
  1  2  1  0  0  0  0
  1 19  1  0  0  0  0
  1 20  1  0  0  0  0
  1 21  1  0  0  0  0
  2  3  1  0  0  0  0
  3  4  2  0  0  0  0
  3  8  1  0  0  0  0
  4  5  1  0  0  0  0
  4 22  1  0  0  0  0
  5  6  2  0  0  0  0
  5 18  1  0  0  0  0
  6  7  1  0  0  0  0
  6  9  1  0  0  0  0
  7  8  2  0  0  0  0
  7 23  1  0  0  0  0
  8 24  1  0  0  0  0
  9 10  2  0  0  0  0
  9 11  1  0  0  0  0
 11 12  2  0  0  0  0
 11 16  1  0  0  0  0
 12 13  1  0  0  0  0
 12 25  1  0  0  0  0
 13 14  2  0  0  0  0
 13 26  1  0  0  0  0
 14 15  1  0  0  0  0
 14 27  1  0  0  0  0
 15 16  2  0  0  0  0
 15 28  1  0  0  0  0
 16 17  1  0  0  0  0
 17 29  1  0  0  0  0
 18 30  1  0  0  0  0
M  END
$$$$

 OpenBabel05152416213D

 30 32  0  0  0  0  0  0  0  0999 V2000
    1.1979   -1.3262   -0.1953 C   0  0  0  0  0  0  0  0  0  0  0  0
   -0.2910   -1.3530    0.1810 C   0  0  0  0  0  0  0  0  0  0  0  0
   -0.9541   -0.0268   -0.0246 C   0  0  0  0  0  0  0  0  0  0  0  0
   -2.1747    0.0410   -0.0794 O   0  0  0  0  0  0  0  0  0  0  0  0
   -0.2172    1.1098   -0.0095 N   0  0  0  0  0  0  0  0  0  0  0  0
    1.1543    1.0816    0.1726 N   0  0  0  0  0  0  0  0  0  0  0  0
    1.8491   -0.0049    0.1225 C   0  0  0  0  0  0  0  0  0  0  0  0
    3.3178    0.1100    0.1630 C   0  0  0  0  0  0  0  0  0  0  0  0
    3.9230    0.7352    1.2593 C   0  0  0  0  0  0  0  0  0  0  0  0
    5.3118    0.8311    1.3328 C   0  0  0  0  0  0  0  0  0  0  0  0
    6.1115    0.3535    0.2860 C   0  0  0  0  0  0  0  0  0  0  0  0
    5.5089   -0.2385   -0.8330 C   0  0  0  0  0  0  0  0  0  0  0  0
    4.1174   -0.3893   -0.8801 C   0  0  0  0  0  0  0  0  0  0  0  0
    7.5363    0.4293    0.3938 N   0  0  0  0  0  0  0  0  0  0  0  0
    8.4151    0.9594   -0.4734 C   0  0  0  0  0  0  0  0  0  0  0  0
    9.6774    0.7909    0.0593 C   0  0  0  0  0  0  0  0  0  0  0  0
    9.5823    0.1443    1.2393 N   0  0  0  0  0  0  0  0  0  0  0  0
    8.2622   -0.0546    1.4176 C   0  0  0  0  0  0  0  0  0  0  0  0
    1.6879   -2.1369    0.3905 H   0  0  0  0  0  0  0  0  0  0  0  0
    1.3444   -1.5331   -1.2738 H   0  0  0  0  0  0  0  0  0  0  0  0
   -0.4093   -1.5815    1.2630 H   0  0  0  0  0  0  0  0  0  0  0  0
   -0.7844   -2.1594   -0.4018 H   0  0  0  0  0  0  0  0  0  0  0  0
   -0.6839    2.0235   -0.0971 H   0  0  0  0  0  0  0  0  0  0  0  0
    3.3193    1.1125    2.0756 H   0  0  0  0  0  0  0  0  0  0  0  0
    5.7684    1.2972    2.1964 H   0  0  0  0  0  0  0  0  0  0  0  0
    6.1180   -0.6203   -1.6430 H   0  0  0  0  0  0  0  0  0  0  0  0
    3.6665   -0.8709   -1.7391 H   0  0  0  0  0  0  0  0  0  0  0  0
    8.1633    1.4558   -1.4020 H   0  0  0  0  0  0  0  0  0  0  0  0
   10.6102    1.1198   -0.3774 H   0  0  0  0  0  0  0  0  0  0  0  0
    7.8378   -0.5804    2.2641 H   0  0  0  0  0  0  0  0  0  0  0  0
  1  2  1  0  0  0  0
  1  7  1  0  0  0  0
  1 19  1  0  0  0  0
  1 20  1  0  0  0  0
  2  3  1  0  0  0  0
  2 21  1  0  0  0  0
  2 22  1  0  0  0  0
  3  4  2  0  0  0  0
  3  5  1  0  0  0  0
  5  6  1  0  0  0  0
  5 23  1  0  0  0  0
  6  7  2  0  0  0  0
  7  8  1  0  0  0  0
  8  9  2  0  0  0  0
  8 13  1  0  0  0  0
  9 10  1  0  0  0  0
  9 24  1  0  0  0  0
 10 11  2  0  0  0  0
 10 25  1  0  0  0  0
 11 12  1  0  0  0  0
 11 14  1  0  0  0  0
 12 13  2  0  0  0  0
 12 26  1  0  0  0  0
 13 27  1  0  0  0  0
 14 15  1  0  0  0  0
 14 18  1  0  0  0  0
 15 16  2  0  0  0  0
 15 28  1  0  0  0  0
 16 17  1  0  0  0  0
 16 29  1  0  0  0  0
 17 18  2  0  0  0  0
 18 30  1  0  0  0  0
M  END
$$$$

 OpenBabel05152416213D

 31 33  0  0  0  0  0  0  0  0999 V2000
   -0.7615   -0.3222   -0.4887 C   0  0  0  0  0  0  0  0  0  0  0  0
    0.4703   -0.2997   -0.5094 C   0  0  0  0  0  0  0  0  0  0  0  0
    1.1074    0.7462   -0.1438 C   0  0  0  0  0  0  0  0  0  0  0  0
    0.2567    1.8599    0.1214 C   0  0  0  0  0  0  0  0  0  0  0  0
   -1.2350    1.7247    0.0270 C   0  0  0  0  0  0  0  0  0  0  0  0
   -1.8703    0.3721   -0.3497 C   0  0  0  0  0  0  0  0  0  0  0  0
   -3.0756   -0.6934   -0.7442 C   0  0  0  0  0  0  0  0  0  0  0  0
   -4.0541   -1.2202    0.1984 C   0  0  0  0  0  0  0  0  0  0  0  0
   -3.7358   -2.5353    0.5878 C   0  0  0  0  0  0  0  0  0  0  0  0
   -4.5059   -3.4139    0.2087 O   0  0  0  0  0  0  0  0  0  0  0  0
   -2.3962   -2.8660    0.6028 C   0  0  0  0  0  0  0  0  0  0  0  0
   -1.4808   -2.2711    1.5134 C   0  0  0  0  0  0  0  0  0  0  0  0
   -0.0903   -2.4226    1.3838 C   0  0  0  0  0  0  0  0  0  0  0  0
    0.4286   -3.0905    0.2677 C   0  0  0  0  0  0  0  0  0  0  0  0
   -0.4946   -3.3707   -0.8400 C   0  0  0  0  0  0  0  0  0  0  0  0
   -1.9489   -2.9813   -0.7018 C   0  0  0  0  0  0  0  0  0  0  0  0
   -2.5194   -1.8828   -1.4352 O   0  0  0  0  0  0  0  0  0  0  0  0
    1.7984   -3.1370    0.1251 O   0  0  0  0  0  0  0  0  0  0  0  0
   -1.9627   -1.3705    2.3894 O   0  0  0  0  0  0  0  0  0  0  0  0
   -5.3772   -0.9919   -0.0385 O   0  0  0  0  0  0  0  0  0  0  0  0
    2.4404    0.5508   -0.0857 O   0  0  0  0  0  0  0  0  0  0  0  0
   -0.9203   -1.1624   -0.5382 H   0  0  0  0  0  0  0  0  0  0  0  0
    1.0012   -1.1720   -0.8301 H   0  0  0  0  0  0  0  0  0  0  0  0
    0.8574    2.7417    0.3253 H   0  0  0  0  0  0  0  0  0  0  0  0
   -1.8534    2.6138    0.1515 H   0  0  0  0  0  0  0  0  0  0  0  0
    0.5907   -1.8752    2.0511 H   0  0  0  0  0  0  0  0  0  0  0  0
    0.0585   -3.5482   -1.7684 H   0  0  0  0  0  0  0  0  0  0  0  0
    2.4322   -2.6632    0.7151 H   0  0  0  0  0  0  0  0  0  0  0  0
   -1.4728   -0.5389    2.5246 H   0  0  0  0  0  0  0  0  0  0  0  0
   -6.0516   -1.7051    0.0277 H   0  0  0  0  0  0  0  0  0  0  0  0
    2.8125   -0.3723   -0.1946 H   0  0  0  0  0  0  0  0  0  0  0  0
  1  2  2  0  0  0  0
  1  6  1  0  0  0  0
  1 22  1  0  0  0  0
  2  3  1  0  0  0  0
  2 23  1  0  0  0  0
  3  4  2  0  0  0  0
  3 21  1  0  0  0  0
  4  5  1  0  0  0  0
  4 24  1  0  0  0  0
  5  6  2  0  0  0  0
  5 25  1  0  0  0  0
  6  7  1  0  0  0  0
  7  8  2  0  0  0  0
  7 17  1  0  0  0  0
  8  9  1  0  0  0  0
  8 20  1  0  0  0  0
  9 10  2  0  0  0  0
  9 11  1  0  0  0  0
 11 12  2  0  0  0  0
 11 16  1  0  0  0  0
 12 13  1  0  0  0  0
 12 19  1  0  0  0  0
 13 14  2  0  0  0  0
 13 26  1  0  0  0  0
 14 15  1  0  0  0  0
 14 18  1  0  0  0  0
 15 16  2  0  0  0  0
 15 27  1  0  0  0  0
 16 17  1  0  0  0  0
 18 28  1  0  0  0  0
 19 29  1  0  0  0  0
 20 30  1  0  0  0  0
 21 31  1  0  0  0  0
M  END
$$$$

 OpenBabel05152416213D

 49 49  0  0  0  0  0  0  0  0999 V2000
    1.0374    0.0666    0.1297 C   0  0  0  0  0  0  0  0  0  0  0  0
    0.6036   -1.3139   -0.3192 C   0  0  0  0  0  0  0  0  0  0  0  0
    1.0434   -2.4391    0.5895 C   0  0  0  0  0  0  0  0  0  0  0  0
   -0.8549   -1.3250   -0.3457 C   0  0  0  0  0  0  0  0  0  0  0  0
   -1.4146   -1.5962   -1.4932 C   0  0  0  0  0  0  0  0  0  0  0  0
   -2.8191   -1.5738   -1.5925 C   0  0  0  0  0  0  0  0  0  0  0  0
   -3.1441   -0.5102   -2.6306 C   0  0  0  0  0  0  0  0  0  0  0  0
   -3.0247   -0.8379   -4.0877 C   0  0  0  0  0  0  0  0  0  0  0  0
   -3.8743   -2.1014   -4.4383 C   0  0  0  0  0  0  0  0  0  0  0  0
   -5.4490   -2.0054   -4.4093 C   0  0  0  0  0  0  0  0  0  0  0  0
   -5.9824   -2.1760   -5.4803 O   0  0  0  0  0  0  0  0  0  0  0  0
   -6.2971   -1.7818   -3.3142 N   0  0  0  0  0  0  0  0  0  0  0  0
   -5.9585   -1.6229   -1.9242 C   0  0  0  0  0  0  0  0  0  0  0  0
   -6.0838   -0.1493   -1.3628 C   0  0  0  0  0  0  0  0  0  0  0  0
   -5.5863    1.0771   -1.9591 C   0  0  0  0  0  0  0  0  0  0  0  0
   -5.6121    2.3136   -1.3068 C   0  0  0  0  0  0  0  0  0  0  0  0
   -6.2784    2.3875   -0.0576 C   0  0  0  0  0  0  0  0  0  0  0  0
   -6.8019    1.2198    0.5036 C   0  0  0  0  0  0  0  0  0  0  0  0
   -6.6822   -0.0213   -0.1174 C   0  0  0  0  0  0  0  0  0  0  0  0
   -6.4655    3.5212    0.6505 O   0  0  0  0  0  0  0  0  0  0  0  0
   -4.9540    3.3354   -1.9405 O   0  0  0  0  0  0  0  0  0  0  0  0
   -4.8193    4.6530   -1.5670 C   0  0  0  0  0  0  0  0  0  0  0  0
    0.6400    0.2813    1.1450 H   0  0  0  0  0  0  0  0  0  0  0  0
    0.6346    0.8318   -0.5767 H   0  0  0  0  0  0  0  0  0  0  0  0
    2.1395    0.1110    0.1223 H   0  0  0  0  0  0  0  0  0  0  0  0
    1.0216   -1.5004   -1.3374 H   0  0  0  0  0  0  0  0  0  0  0  0
    0.6433   -2.2835    1.6137 H   0  0  0  0  0  0  0  0  0  0  0  0
    0.6439   -3.4040    0.1937 H   0  0  0  0  0  0  0  0  0  0  0  0
    2.1455   -2.4784    0.5936 H   0  0  0  0  0  0  0  0  0  0  0  0
   -1.4452   -1.1138    0.5525 H   0  0  0  0  0  0  0  0  0  0  0  0
   -0.8624   -1.8236   -2.3958 H   0  0  0  0  0  0  0  0  0  0  0  0
   -3.0884   -2.6197   -1.8305 H   0  0  0  0  0  0  0  0  0  0  0  0
   -3.3297   -1.3078   -0.6261 H   0  0  0  0  0  0  0  0  0  0  0  0
   -4.1308   -0.4910   -2.6650 H   0  0  0  0  0  0  0  0  0  0  0  0
   -2.7922    0.5011   -2.3238 H   0  0  0  0  0  0  0  0  0  0  0  0
   -3.4123    0.0255   -4.6853 H   0  0  0  0  0  0  0  0  0  0  0  0
   -1.9449   -0.9358   -4.3098 H   0  0  0  0  0  0  0  0  0  0  0  0
   -3.5815   -2.3192   -5.4902 H   0  0  0  0  0  0  0  0  0  0  0  0
   -3.5162   -2.9704   -3.8609 H   0  0  0  0  0  0  0  0  0  0  0  0
   -7.3138   -1.7875   -3.4950 H   0  0  0  0  0  0  0  0  0  0  0  0
   -6.4550   -2.3674   -1.2645 H   0  0  0  0  0  0  0  0  0  0  0  0
   -5.0363   -2.1267   -1.8002 H   0  0  0  0  0  0  0  0  0  0  0  0
   -5.1160    1.1547   -2.9341 H   0  0  0  0  0  0  0  0  0  0  0  0
   -7.3047    1.2745    1.4539 H   0  0  0  0  0  0  0  0  0  0  0  0
   -7.0625   -0.8972    0.3854 H   0  0  0  0  0  0  0  0  0  0  0  0
   -6.3006    4.4190    0.3584 H   0  0  0  0  0  0  0  0  0  0  0  0
   -5.8158    5.1290   -1.6323 H   0  0  0  0  0  0  0  0  0  0  0  0
   -4.3570    4.7343   -0.5573 H   0  0  0  0  0  0  0  0  0  0  0  0
   -4.1479    5.1904   -2.2699 H   0  0  0  0  0  0  0  0  0  0  0  0
  1  2  1  0  0  0  0
  1 23  1  0  0  0  0
  1 24  1  0  0  0  0
  1 25  1  0  0  0  0
  2  3  1  0  0  0  0
  2  4  1  0  0  0  0
  2 26  1  0  0  0  0
  3 27  1  0  0  0  0
  3 28  1  0  0  0  0
  3 29  1  0  0  0  0
  4  5  2  0  0  0  0
  4 30  1  0  0  0  0
  5  6  1  0  0  0  0
  5 31  1  0  0  0  0
  6  7  1  0  0  0  0
  6 32  1  0  0  0  0
  6 33  1  0  0  0  0
  7  8  1  0  0  0  0
  7 34  1  0  0  0  0
  7 35  1  0  0  0  0
  8  9  1  0  0  0  0
  8 36  1  0  0  0  0
  8 37  1  0  0  0  0
  9 10  1  0  0  0  0
  9 38  1  0  0  0  0
  9 39  1  0  0  0  0
 10 11  2  0  0  0  0
 10 12  1  0  0  0  0
 12 13  1  0  0  0  0
 12 40  1  0  0  0  0
 13 14  1  0  0  0  0
 13 41  1  0  0  0  0
 13 42  1  0  0  0  0
 14 15  2  0  0  0  0
 14 19  1  0  0  0  0
 15 16  1  0  0  0  0
 15 43  1  0  0  0  0
 16 17  2  0  0  0  0
 16 21  1  0  0  0  0
 17 18  1  0  0  0  0
 17 20  1  0  0  0  0
 18 19  2  0  0  0  0
 18 44  1  0  0  0  0
 19 45  1  0  0  0  0
 20 46  1  0  0  0  0
 21 22  1  0  0  0  0
 22 47  1  0  0  0  0
 22 48  1  0  0  0  0
 22 49  1  0  0  0  0
M  END
$$$$

 OpenBabel05152416213D

 41 42  0  0  0  0  0  0  0  0999 V2000
    1.0359    0.0146   -0.0465 C   0  0  0  0  0  0  0  0  0  0  0  0
    0.5870   -1.3603   -0.5735 C   0  0  0  0  0  0  0  0  0  0  0  0
    0.9549   -2.4951    0.2992 N   0  0  0  0  0  0  0  0  0  0  0  0
   -0.2559   -3.3518    0.7212 C   0  0  0  0  0  0  0  0  0  0  0  0
   -0.5761   -4.8235    0.1068 C   0  0  0  0  0  0  0  0  0  0  0  0
   -0.8737   -5.8873    1.0235 C   0  0  0  0  0  0  0  0  0  0  0  0
   -0.9160   -7.2580    0.6267 C   0  0  0  0  0  0  0  0  0  0  0  0
   -0.6472   -7.5935   -0.7142 N   0  0  0  0  0  0  0  0  0  0  0  0
   -0.3159   -6.6488   -1.6405 C   0  0  0  0  0  0  0  0  0  0  0  0
   -0.2687   -5.2340   -1.2810 C   0  0  0  0  0  0  0  0  0  0  0  0
    2.3989   -2.5935    0.5764 C   0  0  0  0  0  0  0  0  0  0  0  0
    3.1508   -1.8563   -0.0176 O   0  0  0  0  0  0  0  0  0  0  0  0
    3.2078   -3.6133    1.5072 C   0  0  0  0  0  0  0  0  0  0  0  0
    2.7787   -3.4721    2.9679 C   0  0  0  0  0  0  0  0  0  0  0  0
    1.3941   -3.4201    3.1134 O   0  0  0  0  0  0  0  0  0  0  0  0
    3.2087   -5.0681    1.1349 C   0  0  0  0  0  0  0  0  0  0  0  0
    2.2274   -5.3284    0.3517 C   0  0  0  0  0  0  0  0  0  0  0  0
    1.8887   -6.5565    0.1716 C   0  0  0  0  0  0  0  0  0  0  0  0
    2.4169   -7.6895    0.4734 C   0  0  0  0  0  0  0  0  0  0  0  0
    3.5882   -7.5354    1.1336 C   0  0  0  0  0  0  0  0  0  0  0  0
    3.9888   -6.1995    1.5398 C   0  0  0  0  0  0  0  0  0  0  0  0
    0.6571    0.1815    0.9813 H   0  0  0  0  0  0  0  0  0  0  0  0
    0.6604    0.8102   -0.7238 H   0  0  0  0  0  0  0  0  0  0  0  0
    2.1339    0.1372   -0.0382 H   0  0  0  0  0  0  0  0  0  0  0  0
   -0.5154   -1.2795   -0.6931 H   0  0  0  0  0  0  0  0  0  0  0  0
    1.0009   -1.5220   -1.5872 H   0  0  0  0  0  0  0  0  0  0  0  0
   -0.4135   -3.3831    1.8127 H   0  0  0  0  0  0  0  0  0  0  0  0
   -1.1896   -2.7764    0.5465 H   0  0  0  0  0  0  0  0  0  0  0  0
   -0.9350   -5.6780    2.1063 H   0  0  0  0  0  0  0  0  0  0  0  0
   -0.9165   -8.0505    1.3886 H   0  0  0  0  0  0  0  0  0  0  0  0
    0.4149   -6.9644   -2.4465 H   0  0  0  0  0  0  0  0  0  0  0  0
    0.2820   -4.5553   -1.9346 H   0  0  0  0  0  0  0  0  0  0  0  0
    4.2967   -3.4115    1.4181 H   0  0  0  0  0  0  0  0  0  0  0  0
    3.1345   -4.3354    3.5655 H   0  0  0  0  0  0  0  0  0  0  0  0
    3.2087   -2.5362    3.3637 H   0  0  0  0  0  0  0  0  0  0  0  0
    1.1404   -2.4753    2.9193 H   0  0  0  0  0  0  0  0  0  0  0  0
    1.6599   -4.5977   -0.0667 H   0  0  0  0  0  0  0  0  0  0  0  0
    1.1359   -6.5838   -0.1563 H   0  0  0  0  0  0  0  0  0  0  0  0
    1.8774   -8.5969    0.1661 H   0  0  0  0  0  0  0  0  0  0  0  0
    4.0397   -8.4691    1.3274 H   0  0  0  0  0  0  0  0  0  0  0  0
    4.8403   -6.0678    2.1417 H   0  0  0  0  0  0  0  0  0  0  0  0
  1  2  1  0  0  0  0
  1 22  1  0  0  0  0
  1 23  1  0  0  0  0
  1 24  1  0  0  0  0
  2  3  1  0  0  0  0
  2 25  1  0  0  0  0
  2 26  1  0  0  0  0
  3  4  1  0  0  0  0
  3 11  1  0  0  0  0
  4  5  1  0  0  0  0
  4 27  1  0  0  0  0
  4 28  1  0  0  0  0
  5  6  2  0  0  0  0
  5 10  1  0  0  0  0
  6  7  1  0  0  0  0
  6 29  1  0  0  0  0
  7  8  2  0  0  0  0
  7 30  1  0  0  0  0
  8  9  1  0  0  0  0
  9 10  2  0  0  0  0
  9 31  1  0  0  0  0
 10 32  1  0  0  0  0
 11 12  2  0  0  0  0
 11 13  1  0  0  0  0
 13 14  1  0  0  0  0
 13 16  1  0  0  0  0
 13 33  1  0  0  0  0
 14 15  1  0  0  0  0
 14 34  1  0  0  0  0
 14 35  1  0  0  0  0
 15 36  1  0  0  0  0
 16 17  2  0  0  0  0
 16 21  1  0  0  0  0
 17 18  1  0  0  0  0
 17 37  1  0  0  0  0
 18 19  2  0  0  0  0
 18 38  1  0  0  0  0
 19 20  1  0  0  0  0
 19 39  1  0  0  0  0
 20 21  2  0  0  0  0
 20 40  1  0  0  0  0
 21 41  1  0  0  0  0
M  END
$$$$

 OpenBabel05152416213D

 31 31  0  0  0  0  0  0  0  0999 V2000
    0.8895   -0.0254   -0.0023 C   0  0  0  0  0  0  0  0  0  0  0  0
    0.5401    0.5002   -1.4245 C   0  0  0  0  0  0  0  0  0  0  0  0
    1.1221   -0.2376   -2.5098 O   0  0  0  0  0  0  0  0  0  0  0  0
    2.9085   -0.1397   -2.6351 P   0  0  0  0  0  0  0  0  0  0  0  0
    3.0327    0.9566   -1.5389 O   0  0  0  0  0  0  0  0  0  0  0  0
    2.6881   -1.7901   -1.5881 C   0  0  0  0  0  0  0  0  0  0  0  0
    3.0378   -3.0996   -2.2882 C   0  0  0  0  0  0  0  0  0  0  0  0
    4.6360   -0.2845   -2.4892 O   0  0  0  0  0  0  0  0  0  0  0  0
    5.4313   -1.3361   -2.7500 C   0  0  0  0  0  0  0  0  0  0  0  0
    6.4379   -1.6006   -1.8216 C   0  0  0  0  0  0  0  0  0  0  0  0
    7.1467   -2.7942   -1.8747 C   0  0  0  0  0  0  0  0  0  0  0  0
    6.8090   -3.7777   -2.8182 C   0  0  0  0  0  0  0  0  0  0  0  0
    5.8300   -3.4809   -3.7955 C   0  0  0  0  0  0  0  0  0  0  0  0
    5.1912   -2.2266   -3.8113 C   0  0  0  0  0  0  0  0  0  0  0  0
    7.4098   -5.0679   -2.7628 N   0  3  0  0  0  0  0  0  0  0  0  0
    8.2976   -5.2858   -1.9779 O   0  0  0  0  0  0  0  0  0  0  0  0
    6.9584   -6.0546   -3.4960 O   0  5  0  0  0  0  0  0  0  0  0  0
    0.4896   -1.0483    0.1516 H   0  0  0  0  0  0  0  0  0  0  0  0
    0.4647    0.6367    0.7726 H   0  0  0  0  0  0  0  0  0  0  0  0
    1.9740   -0.0600    0.2210 H   0  0  0  0  0  0  0  0  0  0  0  0
   -0.5631    0.4360   -1.5200 H   0  0  0  0  0  0  0  0  0  0  0  0
    0.7738    1.5801   -1.5306 H   0  0  0  0  0  0  0  0  0  0  0  0
    3.2532   -1.7244   -0.6415 H   0  0  0  0  0  0  0  0  0  0  0  0
    1.6376   -2.0285   -1.3461 H   0  0  0  0  0  0  0  0  0  0  0  0
    4.0833   -3.2111   -2.0814 H   0  0  0  0  0  0  0  0  0  0  0  0
    2.8517   -4.0789   -1.8219 H   0  0  0  0  0  0  0  0  0  0  0  0
    2.6407   -3.1321   -3.3352 H   0  0  0  0  0  0  0  0  0  0  0  0
    6.6189   -0.9100   -1.0055 H   0  0  0  0  0  0  0  0  0  0  0  0
    7.9017   -2.9801   -1.1218 H   0  0  0  0  0  0  0  0  0  0  0  0
    5.5090   -4.2387   -4.4976 H   0  0  0  0  0  0  0  0  0  0  0  0
    4.3972   -2.0295   -4.5225 H   0  0  0  0  0  0  0  0  0  0  0  0
  1  2  1  0  0  0  0
  1 18  1  0  0  0  0
  1 19  1  0  0  0  0
  1 20  1  0  0  0  0
  2  3  1  0  0  0  0
  2 21  1  0  0  0  0
  2 22  1  0  0  0  0
  3  4  1  0  0  0  0
  4  5  2  0  0  0  0
  4  6  1  0  0  0  0
  4  8  1  0  0  0  0
  6  7  1  0  0  0  0
  6 23  1  0  0  0  0
  6 24  1  0  0  0  0
  7 25  1  0  0  0  0
  7 26  1  0  0  0  0
  7 27  1  0  0  0  0
  8  9  1  0  0  0  0
  9 10  2  0  0  0  0
  9 14  1  0  0  0  0
 10 11  1  0  0  0  0
 10 28  1  0  0  0  0
 11 12  2  0  0  0  0
 11 29  1  0  0  0  0
 12 13  1  0  0  0  0
 12 15  1  0  0  0  0
 13 14  2  0  0  0  0
 13 30  1  0  0  0  0
 14 31  1  0  0  0  0
 15 16  2  0  0  0  0
 15 17  1  0  0  0  0
M  CHG  2  15   1  17  -1
M  END
$$$$

 OpenBabel05152416213D

 32 32  0  0  0  0  0  0  0  0999 V2000
    0.8914   -0.4197    0.2390 C   0  0  0  0  0  0  0  0  0  0  0  0
    0.5235    0.8786   -0.3382 C   0  0  0  0  0  0  0  0  0  0  0  0
    1.0699    0.8513   -1.6406 O   0  0  0  0  0  0  0  0  0  0  0  0
    2.6263    1.6614   -1.6703 P   0  0  0  0  0  0  0  0  0  0  0  0
    2.4878    2.0780   -3.1495 O   0  0  0  0  0  0  0  0  0  0  0  0
    2.3889    3.1440   -0.8131 O   0  0  0  0  0  0  0  0  0  0  0  0
    1.1593    3.7942   -0.9358 C   0  0  0  0  0  0  0  0  0  0  0  0
    0.5232    3.8431   -2.3178 C   0  0  0  0  0  0  0  0  0  0  0  0
    4.3608    1.5243   -1.8374 O   0  0  0  0  0  0  0  0  0  0  0  0
    5.0995    2.6383   -2.2337 C   0  0  0  0  0  0  0  0  0  0  0  0
    6.2217    2.4974   -3.0734 C   0  0  0  0  0  0  0  0  0  0  0  0
    6.9254    3.6366   -3.5346 C   0  0  0  0  0  0  0  0  0  0  0  0
    6.5055    4.9389   -3.1952 C   0  0  0  0  0  0  0  0  0  0  0  0
    5.4256    5.0803   -2.3442 C   0  0  0  0  0  0  0  0  0  0  0  0
    4.7694    3.9771   -1.8637 C   0  0  0  0  0  0  0  0  0  0  0  0
    7.1315    6.1155   -3.6894 N   0  3  0  0  0  0  0  0  0  0  0  0
    8.0674    6.0277   -4.4443 O   0  0  0  0  0  0  0  0  0  0  0  0
    6.6447    7.3022   -3.4210 O   0  5  0  0  0  0  0  0  0  0  0  0
    0.5234   -1.1875   -0.4682 H   0  0  0  0  0  0  0  0  0  0  0  0
    0.4724   -0.4981    1.2548 H   0  0  0  0  0  0  0  0  0  0  0  0
    2.0043   -0.4152    0.2758 H   0  0  0  0  0  0  0  0  0  0  0  0
   -0.5831    1.0726   -0.3760 H   0  0  0  0  0  0  0  0  0  0  0  0
    0.9451    1.5968    0.3940 H   0  0  0  0  0  0  0  0  0  0  0  0
    0.4518    3.4411   -0.1843 H   0  0  0  0  0  0  0  0  0  0  0  0
    1.3592    4.8236   -0.5969 H   0  0  0  0  0  0  0  0  0  0  0  0
    0.3681    2.8620   -2.8020 H   0  0  0  0  0  0  0  0  0  0  0  0
   -0.4948    4.2396   -2.1686 H   0  0  0  0  0  0  0  0  0  0  0  0
    1.1341    4.4832   -2.9836 H   0  0  0  0  0  0  0  0  0  0  0  0
    6.5407    1.5150   -3.3924 H   0  0  0  0  0  0  0  0  0  0  0  0
    7.7852    3.5079   -4.1760 H   0  0  0  0  0  0  0  0  0  0  0  0
    5.0670    6.0578   -2.0360 H   0  0  0  0  0  0  0  0  0  0  0  0
    4.0261    4.3113   -1.2087 H   0  0  0  0  0  0  0  0  0  0  0  0
  1  2  1  0  0  0  0
  1 19  1  0  0  0  0
  1 20  1  0  0  0  0
  1 21  1  0  0  0  0
  2  3  1  0  0  0  0
  2 22  1  0  0  0  0
  2 23  1  0  0  0  0
  3  4  1  0  0  0  0
  4  5  2  0  0  0  0
  4  6  1  0  0  0  0
  4  9  1  0  0  0  0
  6  7  1  0  0  0  0
  7  8  1  0  0  0  0
  7 24  1  0  0  0  0
  7 25  1  0  0  0  0
  8 26  1  0  0  0  0
  8 27  1  0  0  0  0
  8 28  1  0  0  0  0
  9 10  1  0  0  0  0
 10 11  2  0  0  0  0
 10 15  1  0  0  0  0
 11 12  1  0  0  0  0
 11 29  1  0  0  0  0
 12 13  2  0  0  0  0
 12 30  1  0  0  0  0
 13 14  1  0  0  0  0
 13 16  1  0  0  0  0
 14 15  2  0  0  0  0
 14 31  1  0  0  0  0
 15 32  1  0  0  0  0
 16 17  2  0  0  0  0
 16 18  1  0  0  0  0
M  CHG  2  16   1  18  -1
M  END
$$$$

 OpenBabel05152416213D

 45 46  0  0  0  0  0  0  0  0999 V2000
    0.9518   -0.1472   -0.1435 C   0  0  0  0  0  0  0  0  0  0  0  0
    0.5095   -0.7644    1.1839 C   0  0  0  0  0  0  0  0  0  0  0  0
    1.0093    0.0670    2.3794 C   0  0  0  0  0  0  0  0  0  0  0  0
    0.4744    1.5108    2.3676 C   0  0  0  0  0  0  0  0  0  0  0  0
   -1.0592    1.5725    2.4280 C   0  0  0  0  0  0  0  0  0  0  0  0
   -1.6657    0.9407    3.7119 C   0  0  0  0  0  0  0  0  0  0  0  0
   -1.1025    1.6034    4.9765 C   0  0  0  0  0  0  0  0  0  0  0  0
   -3.0561    1.0037    3.7099 O   0  0  0  0  0  0  0  0  0  0  0  0
   -3.8060    2.1406    3.7319 C   0  0  0  0  0  0  0  0  0  0  0  0
   -3.2763    3.2418    3.7769 O   0  0  0  0  0  0  0  0  0  0  0  0
   -5.2936    2.0791    3.5787 C   0  0  0  0  0  0  0  0  0  0  0  0
   -5.7211    1.4609    2.4061 O   0  0  0  0  0  0  0  0  0  0  0  0
   -5.3708    1.7800    1.1212 C   0  0  0  0  0  0  0  0  0  0  0  0
   -6.3127    1.6389    0.0850 C   0  0  0  0  0  0  0  0  0  0  0  0
   -5.9397    1.9587   -1.2535 C   0  0  0  0  0  0  0  0  0  0  0  0
   -4.6396    2.4089   -1.5409 C   0  0  0  0  0  0  0  0  0  0  0  0
   -3.7161    2.5098   -0.5174 C   0  0  0  0  0  0  0  0  0  0  0  0
   -4.0817    2.2060    0.7776 C   0  0  0  0  0  0  0  0  0  0  0  0
   -4.0909    2.8133   -3.1635 Cl  0  0  0  0  0  0  0  0  0  0  0  0
   -6.8823    1.7765   -2.2695 C   0  0  0  0  0  0  0  0  0  0  0  0
   -8.1388    1.2668   -1.9696 C   0  0  0  0  0  0  0  0  0  0  0  0
   -8.4740    0.9820   -0.6448 C   0  0  0  0  0  0  0  0  0  0  0  0
   -7.5622    1.1821    0.3481 N   0  0  0  0  0  0  0  0  0  0  0  0
    0.5200    0.8636   -0.2924 H   0  0  0  0  0  0  0  0  0  0  0  0
    0.6016   -0.7689   -0.9884 H   0  0  0  0  0  0  0  0  0  0  0  0
    2.0597   -0.0738   -0.1611 H   0  0  0  0  0  0  0  0  0  0  0  0
   -0.5960   -0.8700    1.1996 H   0  0  0  0  0  0  0  0  0  0  0  0
    0.9220   -1.7907    1.2646 H   0  0  0  0  0  0  0  0  0  0  0  0
    0.7216   -0.4389    3.3249 H   0  0  0  0  0  0  0  0  0  0  0  0
    2.1181    0.0982    2.3670 H   0  0  0  0  0  0  0  0  0  0  0  0
    0.9139    2.0856    3.2039 H   0  0  0  0  0  0  0  0  0  0  0  0
    0.8217    2.0489    1.4638 H   0  0  0  0  0  0  0  0  0  0  0  0
   -1.3310    2.6433    2.3559 H   0  0  0  0  0  0  0  0  0  0  0  0
   -1.4809    1.0682    1.5321 H   0  0  0  0  0  0  0  0  0  0  0  0
   -1.4051   -0.1385    3.7358 H   0  0  0  0  0  0  0  0  0  0  0  0
   -1.3157    2.6902    4.9770 H   0  0  0  0  0  0  0  0  0  0  0  0
   -1.5471    1.1359    5.8741 H   0  0  0  0  0  0  0  0  0  0  0  0
   -0.0056    1.4833    5.0479 H   0  0  0  0  0  0  0  0  0  0  0  0
   -5.7135    1.5413    4.4545 H   0  0  0  0  0  0  0  0  0  0  0  0
   -5.6900    3.1170    3.5878 H   0  0  0  0  0  0  0  0  0  0  0  0
   -2.6961    2.8121   -0.7149 H   0  0  0  0  0  0  0  0  0  0  0  0
   -3.3073    2.2973    1.4702 H   0  0  0  0  0  0  0  0  0  0  0  0
   -6.6367    1.9994   -3.2983 H   0  0  0  0  0  0  0  0  0  0  0  0
   -8.8445    1.0858   -2.7681 H   0  0  0  0  0  0  0  0  0  0  0  0
   -9.4508    0.5874   -0.4092 H   0  0  0  0  0  0  0  0  0  0  0  0
  1  2  1  0  0  0  0
  1 24  1  0  0  0  0
  1 25  1  0  0  0  0
  1 26  1  0  0  0  0
  2  3  1  0  0  0  0
  2 27  1  0  0  0  0
  2 28  1  0  0  0  0
  3  4  1  0  0  0  0
  3 29  1  0  0  0  0
  3 30  1  0  0  0  0
  4  5  1  0  0  0  0
  4 31  1  0  0  0  0
  4 32  1  0  0  0  0
  5  6  1  0  0  0  0
  5 33  1  0  0  0  0
  5 34  1  0  0  0  0
  6  7  1  0  0  0  0
  6  8  1  0  0  0  0
  6 35  1  0  0  0  0
  7 36  1  0  0  0  0
  7 37  1  0  0  0  0
  7 38  1  0  0  0  0
  8  9  1  0  0  0  0
  9 10  2  0  0  0  0
  9 11  1  0  0  0  0
 11 12  1  0  0  0  0
 11 39  1  0  0  0  0
 11 40  1  0  0  0  0
 12 13  1  0  0  0  0
 13 14  2  0  0  0  0
 13 18  1  0  0  0  0
 14 15  1  0  0  0  0
 14 23  1  0  0  0  0
 15 16  2  0  0  0  0
 15 20  1  0  0  0  0
 16 17  1  0  0  0  0
 16 19  1  0  0  0  0
 17 18  2  0  0  0  0
 17 41  1  0  0  0  0
 18 42  1  0  0  0  0
 20 21  2  0  0  0  0
 20 43  1  0  0  0  0
 21 22  1  0  0  0  0
 21 44  1  0  0  0  0
 22 23  2  0  0  0  0
 22 45  1  0  0  0  0
M  END
$$$$

 OpenBabel05152416213D

 35 35  0  0  0  0  0  0  0  0999 V2000
    2.8593    0.2845   -0.0515 C   0  0  0  0  0  0  0  0  0  0  0  0
    1.3482    0.2274   -0.0968 C   0  0  0  0  0  0  0  0  0  0  0  0
    0.8590   -1.0751   -0.0501 C   0  0  0  0  0  0  0  0  0  0  0  0
   -0.7785   -1.0531   -0.0531 S   0  0  0  0  0  0  0  0  0  0  0  0
   -0.9699    0.6101   -0.1037 C   0  0  0  0  0  0  0  0  0  0  0  0
    0.3090    1.2867   -0.1421 C   0  0  0  0  0  0  0  0  0  0  0  0
    0.5546    2.7889   -0.1085 N   0  0  0  0  0  0  0  0  0  0  0  0
    1.9400    3.2730   -0.0576 C   0  0  0  0  0  0  0  0  0  0  0  0
    2.3480    4.0413   -1.3200 C   0  0  0  0  0  0  0  0  0  0  0  0
    2.3229    3.9147    1.2937 C   0  0  0  0  0  0  0  0  0  0  0  0
    2.1342    3.0732    2.4356 O   0  0  0  0  0  0  0  0  0  0  0  0
    0.7775    2.7462    2.7029 C   0  0  0  0  0  0  0  0  0  0  0  0
   -0.4764    3.7653   -0.0451 C   0  0  0  0  0  0  0  0  0  0  0  0
   -1.6251    3.4519   -0.0733 O   0  0  0  0  0  0  0  0  0  0  0  0
   -0.3576    5.3073    0.0387 C   0  0  0  0  0  0  0  0  0  0  0  0
   -0.1529    6.0872    1.6412 Cl  0  0  0  0  0  0  0  0  0  0  0  0
   -2.3854    1.0804   -0.0503 C   0  0  0  0  0  0  0  0  0  0  0  0
    3.2425    0.7584   -0.9818 H   0  0  0  0  0  0  0  0  0  0  0  0
    3.1811    0.7963    0.8842 H   0  0  0  0  0  0  0  0  0  0  0  0
    3.3546   -0.7064   -0.0104 H   0  0  0  0  0  0  0  0  0  0  0  0
    1.4530   -1.9815    0.0100 H   0  0  0  0  0  0  0  0  0  0  0  0
    2.6422    2.5127   -0.1061 H   0  0  0  0  0  0  0  0  0  0  0  0
    1.8314    4.9812   -1.4744 H   0  0  0  0  0  0  0  0  0  0  0  0
    3.4291    4.2875   -1.2871 H   0  0  0  0  0  0  0  0  0  0  0  0
    2.1535    3.3955   -2.2061 H   0  0  0  0  0  0  0  0  0  0  0  0
    3.4095    4.1449    1.2553 H   0  0  0  0  0  0  0  0  0  0  0  0
    1.9076    4.8958    1.4235 H   0  0  0  0  0  0  0  0  0  0  0  0
    0.0676    3.5920    2.6055 H   0  0  0  0  0  0  0  0  0  0  0  0
    0.4615    1.8818    2.1234 H   0  0  0  0  0  0  0  0  0  0  0  0
    0.6736    2.3202    3.7158 H   0  0  0  0  0  0  0  0  0  0  0  0
    0.1554    5.8034   -0.7880 H   0  0  0  0  0  0  0  0  0  0  0  0
   -1.3832    5.7000   -0.1233 H   0  0  0  0  0  0  0  0  0  0  0  0
   -2.5360    1.6418    0.8991 H   0  0  0  0  0  0  0  0  0  0  0  0
   -2.6081    1.6453   -0.9794 H   0  0  0  0  0  0  0  0  0  0  0  0
   -3.1194    0.2548   -0.0139 H   0  0  0  0  0  0  0  0  0  0  0  0
  1  2  1  0  0  0  0
  1 18  1  0  0  0  0
  1 19  1  0  0  0  0
  1 20  1  0  0  0  0
  2  3  2  0  0  0  0
  2  6  1  0  0  0  0
  3  4  1  0  0  0  0
  3 21  1  0  0  0  0
  4  5  1  0  0  0  0
  5  6  2  0  0  0  0
  5 17  1  0  0  0  0
  6  7  1  0  0  0  0
  7  8  1  0  0  0  0
  7 13  1  0  0  0  0
  8  9  1  0  0  0  0
  8 10  1  0  0  0  0
  8 22  1  0  0  0  0
  9 23  1  0  0  0  0
  9 24  1  0  0  0  0
  9 25  1  0  0  0  0
 10 11  1  0  0  0  0
 10 26  1  0  0  0  0
 10 27  1  0  0  0  0
 11 12  1  0  0  0  0
 12 28  1  0  0  0  0
 12 29  1  0  0  0  0
 12 30  1  0  0  0  0
 13 14  2  0  0  0  0
 13 15  1  0  0  0  0
 15 16  1  0  0  0  0
 15 31  1  0  0  0  0
 15 32  1  0  0  0  0
 17 33  1  0  0  0  0
 17 34  1  0  0  0  0
 17 35  1  0  0  0  0
M  END
$$$$

 OpenBabel05152416213D

 32 33  0  0  0  0  0  0  0  0999 V2000
    1.1879   -0.0994    1.0433 C   0  0  0  0  0  0  0  0  0  0  0  0
    0.5810    1.2651    0.9993 C   0  0  0  0  0  0  0  0  0  0  0  0
   -0.3680    1.6550    1.9262 C   0  0  0  0  0  0  0  0  0  0  0  0
   -0.4284    2.9719    1.9322 O   0  0  0  0  0  0  0  0  0  0  0  0
    0.3908    3.4589    1.0079 C   0  0  0  0  0  0  0  0  0  0  0  0
    0.9899    2.4160    0.2810 C   0  0  0  0  0  0  0  0  0  0  0  0
    1.9438    2.5801   -0.9105 C   0  0  0  0  0  0  0  0  0  0  0  0
    2.4199    3.6957   -1.1120 O   0  0  0  0  0  0  0  0  0  0  0  0
    2.3276    1.6185   -1.8013 N   0  0  0  0  0  0  0  0  0  0  0  0
    1.8036    0.2982   -1.8542 C   0  0  0  0  0  0  0  0  0  0  0  0
    2.7076   -0.7786   -1.8427 C   0  0  0  0  0  0  0  0  0  0  0  0
    2.2326   -2.0841   -1.6599 C   0  0  0  0  0  0  0  0  0  0  0  0
    0.8587   -2.3185   -1.5089 C   0  0  0  0  0  0  0  0  0  0  0  0
   -0.0565   -1.2524   -1.5861 C   0  0  0  0  0  0  0  0  0  0  0  0
    0.4138    0.0639   -1.7756 C   0  0  0  0  0  0  0  0  0  0  0  0
    0.6680    4.9463    0.8706 C   0  0  0  0  0  0  0  0  0  0  0  0
   -1.1870    0.7162    2.8189 C   0  0  0  0  0  0  0  0  0  0  0  0
    1.3460   -0.6647    0.2201 H   0  0  0  0  0  0  0  0  0  0  0  0
    0.4319   -0.8939    1.1915 H   0  0  0  0  0  0  0  0  0  0  0  0
    2.2875    0.0228    0.9943 H   0  0  0  0  0  0  0  0  0  0  0  0
    3.0868    1.8387   -2.4605 H   0  0  0  0  0  0  0  0  0  0  0  0
    3.7769   -0.6037   -1.8607 H   0  0  0  0  0  0  0  0  0  0  0  0
    2.9358   -2.9010   -1.5607 H   0  0  0  0  0  0  0  0  0  0  0  0
    0.5161   -3.3178   -1.2751 H   0  0  0  0  0  0  0  0  0  0  0  0
   -1.1070   -1.4305   -1.3987 H   0  0  0  0  0  0  0  0  0  0  0  0
   -0.2768    0.8980   -1.7497 H   0  0  0  0  0  0  0  0  0  0  0  0
   -0.2517    5.5233    0.6780 H   0  0  0  0  0  0  0  0  0  0  0  0
    1.1642    5.3121    1.7986 H   0  0  0  0  0  0  0  0  0  0  0  0
    1.3706    5.2218    0.0751 H   0  0  0  0  0  0  0  0  0  0  0  0
   -0.9163    0.7813    3.8892 H   0  0  0  0  0  0  0  0  0  0  0  0
   -2.2787    0.9081    2.7143 H   0  0  0  0  0  0  0  0  0  0  0  0
   -1.0815   -0.3503    2.5257 H   0  0  0  0  0  0  0  0  0  0  0  0
  1  2  1  0  0  0  0
  1 18  1  0  0  0  0
  1 19  1  0  0  0  0
  1 20  1  0  0  0  0
  2  3  2  0  0  0  0
  2  6  1  0  0  0  0
  3  4  1  0  0  0  0
  3 17  1  0  0  0  0
  4  5  1  0  0  0  0
  5  6  2  0  0  0  0
  5 16  1  0  0  0  0
  6  7  1  0  0  0  0
  7  8  2  0  0  0  0
  7  9  1  0  0  0  0
  9 10  1  0  0  0  0
  9 21  1  0  0  0  0
 10 11  2  0  0  0  0
 10 15  1  0  0  0  0
 11 12  1  0  0  0  0
 11 22  1  0  0  0  0
 12 13  2  0  0  0  0
 12 23  1  0  0  0  0
 13 14  1  0  0  0  0
 13 24  1  0  0  0  0
 14 15  2  0  0  0  0
 14 25  1  0  0  0  0
 15 26  1  0  0  0  0
 16 27  1  0  0  0  0
 16 28  1  0  0  0  0
 16 29  1  0  0  0  0
 17 30  1  0  0  0  0
 17 31  1  0  0  0  0
 17 32  1  0  0  0  0
M  END
$$$$

 OpenBabel05152416213D

 36 37  0  0  0  0  0  0  0  0999 V2000
    0.8645   -0.1327   -0.0710 C   0  0  0  0  0  0  0  0  0  0  0  0
    0.2113    0.9074   -0.9715 C   0  0  0  0  0  0  0  0  0  0  0  0
    0.9524    1.2462   -2.1622 O   0  0  0  0  0  0  0  0  0  0  0  0
    2.6824    1.2462   -2.1622 P   0  0  0  0  0  0  0  0  0  0  0  0
    2.7119    1.8237   -3.8340 S   0  0  0  0  0  0  0  0  0  0  0  0
    2.8464    2.9113   -1.5144 O   0  0  0  0  0  0  0  0  0  0  0  0
    1.7073    3.3445   -0.8190 C   0  0  0  0  0  0  0  0  0  0  0  0
    0.6876    3.8561   -1.8852 C   0  0  0  0  0  0  0  0  0  0  0  0
    4.8024    1.2462   -2.1622 S   0  0  0  0  0  0  0  0  0  0  0  0
    5.3312    1.4171   -0.4273 C   0  0  0  0  0  0  0  0  0  0  0  0
    4.9861    2.7194    0.1128 N   0  0  0  0  0  0  0  0  0  0  0  0
    5.4201    3.9379   -0.2791 C   0  0  0  0  0  0  0  0  0  0  0  0
    4.8227    4.8826    0.5063 C   0  0  0  0  0  0  0  0  0  0  0  0
    5.0809    6.2421    0.3432 C   0  0  0  0  0  0  0  0  0  0  0  0
    6.0002    6.6175   -0.6582 C   0  0  0  0  0  0  0  0  0  0  0  0
    6.6174    5.6370   -1.4686 C   0  0  0  0  0  0  0  0  0  0  0  0
    6.3254    4.2724   -1.2876 C   0  0  0  0  0  0  0  0  0  0  0  0
    6.3965    8.3093   -0.8946 Cl  0  0  0  0  0  0  0  0  0  0  0  0
    4.0308    4.2933    1.3818 O   0  0  0  0  0  0  0  0  0  0  0  0
    4.1431    3.0037    1.1448 C   0  0  0  0  0  0  0  0  0  0  0  0
    3.5293    2.1424    1.7662 O   0  0  0  0  0  0  0  0  0  0  0  0
    0.6890   -1.1228   -0.5264 H   0  0  0  0  0  0  0  0  0  0  0  0
    0.4267   -0.0730    0.9480 H   0  0  0  0  0  0  0  0  0  0  0  0
    1.9518    0.0334    0.0594 H   0  0  0  0  0  0  0  0  0  0  0  0
   -0.8332    0.6409   -1.2270 H   0  0  0  0  0  0  0  0  0  0  0  0
   -0.1361    1.7853   -0.3951 H   0  0  0  0  0  0  0  0  0  0  0  0
    1.5652    2.6122    0.0039 H   0  0  0  0  0  0  0  0  0  0  0  0
    1.8619    4.1737   -0.1063 H   0  0  0  0  0  0  0  0  0  0  0  0
    0.5261    3.2581   -2.8072 H   0  0  0  0  0  0  0  0  0  0  0  0
   -0.3324    4.0005   -1.4835 H   0  0  0  0  0  0  0  0  0  0  0  0
    1.1410    4.7552   -2.3275 H   0  0  0  0  0  0  0  0  0  0  0  0
    4.9271    0.5814    0.1763 H   0  0  0  0  0  0  0  0  0  0  0  0
    6.4424    1.3266   -0.4123 H   0  0  0  0  0  0  0  0  0  0  0  0
    4.6022    6.9824    0.9703 H   0  0  0  0  0  0  0  0  0  0  0  0
    7.3251    5.9337   -2.2324 H   0  0  0  0  0  0  0  0  0  0  0  0
    6.8004    3.5219   -1.9039 H   0  0  0  0  0  0  0  0  0  0  0  0
  1  2  1  0  0  0  0
  1 22  1  0  0  0  0
  1 23  1  0  0  0  0
  1 24  1  0  0  0  0
  2  3  1  0  0  0  0
  2 25  1  0  0  0  0
  2 26  1  0  0  0  0
  3  4  1  0  0  0  0
  4  5  2  0  0  0  0
  4  6  1  0  0  0  0
  4  9  1  0  0  0  0
  6  7  1  0  0  0  0
  7  8  1  0  0  0  0
  7 27  1  0  0  0  0
  7 28  1  0  0  0  0
  8 29  1  0  0  0  0
  8 30  1  0  0  0  0
  8 31  1  0  0  0  0
  9 10  1  0  0  0  0
 10 11  1  0  0  0  0
 10 32  1  0  0  0  0
 10 33  1  0  0  0  0
 11 12  1  0  0  0  0
 11 20  1  0  0  0  0
 12 13  2  0  0  0  0
 12 17  1  0  0  0  0
 13 14  1  0  0  0  0
 13 19  1  0  0  0  0
 14 15  2  0  0  0  0
 14 34  1  0  0  0  0
 15 16  1  0  0  0  0
 15 18  1  0  0  0  0
 16 17  2  0  0  0  0
 16 35  1  0  0  0  0
 17 36  1  0  0  0  0
 19 20  1  0  0  0  0
 20 21  2  0  0  0  0
M  END
$$$$

 OpenBabel05152416213D

 38 35  0  0  0  0  0  0  0  0999 V2000
    1.7457   -0.6722   -0.6103 C   0  0  0  0  0  0  0  0  0  0  0  0
    0.5556   -1.3980   -0.5521 C   0  0  0  0  0  0  0  0  0  0  0  0
   -0.6778   -0.7352   -0.4628 C   0  0  0  0  0  0  0  0  0  0  0  0
   -0.7059    0.7114   -0.4853 C   0  0  0  0  0  0  0  0  0  0  0  0
    0.5005    1.4652   -0.4507 C   0  0  0  0  0  0  0  0  0  0  0  0
    1.7753    0.8123   -0.4454 C   0  0  0  0  0  0  0  0  0  0  0  0
    3.0451    1.6894   -0.2016 C   0  0  0  0  0  0  0  0  0  0  0  0
    4.0886    1.5667   -1.1025 C   0  0  0  0  0  0  0  0  0  0  0  0
    5.2768    2.2887   -1.0135 C   0  0  0  0  0  0  0  0  0  0  0  0
    5.5301    3.1589    0.0703 C   0  0  0  0  0  0  0  0  0  0  0  0
    4.5261    3.3084    1.0368 C   0  0  0  0  0  0  0  0  0  0  0  0
    3.2845    2.6489    0.8759 C   0  0  0  0  0  0  0  0  0  0  0  0
    6.7354    3.8953    0.1907 N   0  0  0  0  0  0  0  0  0  0  0  0
    6.2092    2.1075   -2.0673 N   0  0  0  0  0  0  0  0  0  0  0  0
   -1.9596    1.3969   -0.2738 N   0  0  0  0  0  0  0  0  0  0  0  0
   -1.7984   -1.5412   -0.1981 N   0  0  0  0  0  0  0  0  0  0  0  0
    2.5942   -1.8137    1.8741 Cl  0  0  0  0  0  0  0  0  0  0  0  0
    0.8851    0.1274   -3.3080 Cl  0  0  0  0  0  0  0  0  0  0  0  0
    2.5280    0.9215    3.3057 Cl  0  0  0  0  0  0  0  0  0  0  0  0
   -0.3465    0.6572    2.3359 Cl  0  0  0  0  0  0  0  0  0  0  0  0
    2.5715   -1.4058   -0.6859 H   0  0  0  0  0  0  0  0  0  0  0  0
    0.5729   -2.5121   -0.4721 H   0  0  0  0  0  0  0  0  0  0  0  0
    0.4645    2.5618   -0.3284 H   0  0  0  0  0  0  0  0  0  0  0  0
    3.9519    0.9193   -1.9353 H   0  0  0  0  0  0  0  0  0  0  0  0
    4.7213    3.9534    1.9045 H   0  0  0  0  0  0  0  0  0  0  0  0
    2.5851    2.8855    1.6695 H   0  0  0  0  0  0  0  0  0  0  0  0
    7.4717    3.8631   -0.5286 H   0  0  0  0  0  0  0  0  0  0  0  0
    6.8852    4.5509    0.9714 H   0  0  0  0  0  0  0  0  0  0  0  0
    5.9665    1.4698   -2.8382 H   0  0  0  0  0  0  0  0  0  0  0  0
    7.0893    2.6165   -2.1320 H   0  0  0  0  0  0  0  0  0  0  0  0
   -2.8282    0.9013   -0.0767 H   0  0  0  0  0  0  0  0  0  0  0  0
   -1.9767    2.4036   -0.0488 H   0  0  0  0  0  0  0  0  0  0  0  0
   -1.6850   -2.5504    0.0072 H   0  0  0  0  0  0  0  0  0  0  0  0
   -2.7217   -1.1510    0.0341 H   0  0  0  0  0  0  0  0  0  0  0  0
    3.4589   -1.0311    1.0730 H   0  0  0  0  0  0  0  0  0  0  0  0
    2.1809    0.0134   -2.8346 H   0  0  0  0  0  0  0  0  0  0  0  0
    3.2382    0.6388    2.1739 H   0  0  0  0  0  0  0  0  0  0  0  0
    0.6420    0.0956    1.5578 H   0  0  0  0  0  0  0  0  0  0  0  0
  1  2  2  0  0  0  0
  1  6  1  0  0  0  0
  1 21  1  0  0  0  0
  2  3  1  0  0  0  0
  2 22  1  0  0  0  0
  3  4  2  0  0  0  0
  3 16  1  0  0  0  0
  4  5  1  0  0  0  0
  4 15  1  0  0  0  0
  5  6  2  0  0  0  0
  5 23  1  0  0  0  0
  6  7  1  0  0  0  0
  7  8  2  0  0  0  0
  7 12  1  0  0  0  0
  8  9  1  0  0  0  0
  8 24  1  0  0  0  0
  9 10  2  0  0  0  0
  9 14  1  0  0  0  0
 10 11  1  0  0  0  0
 10 13  1  0  0  0  0
 11 12  2  0  0  0  0
 11 25  1  0  0  0  0
 12 26  1  0  0  0  0
 13 27  1  0  0  0  0
 13 28  1  0  0  0  0
 14 29  1  0  0  0  0
 14 30  1  0  0  0  0
 15 31  1  0  0  0  0
 15 32  1  0  0  0  0
 16 33  1  0  0  0  0
 16 34  1  0  0  0  0
 17 35  1  0  0  0  0
 18 36  1  0  0  0  0
 19 37  1  0  0  0  0
 20 38  1  0  0  0  0
M  END
$$$$

 OpenBabel05152416213D

 32 33  0  0  0  0  0  0  0  0999 V2000
    1.4591   -0.1683    0.7141 C   0  0  0  0  0  0  0  0  0  0  0  0
    0.5669    0.4961    1.7103 C   0  0  0  0  0  0  0  0  0  0  0  0
    1.0067    1.9007    1.7565 N   0  0  0  0  0  0  0  0  0  0  0  0
    2.2546    2.2808    2.0760 C   0  0  0  0  0  0  0  0  0  0  0  0
    2.3618    3.6591    2.0296 C   0  0  0  0  0  0  0  0  0  0  0  0
    3.5717    4.2857    2.3516 C   0  0  0  0  0  0  0  0  0  0  0  0
    4.6820    3.4704    2.7007 C   0  0  0  0  0  0  0  0  0  0  0  0
    4.5629    2.0638    2.6922 C   0  0  0  0  0  0  0  0  0  0  0  0
    3.3478    1.4684    2.3891 C   0  0  0  0  0  0  0  0  0  0  0  0
    5.9181    4.0447    3.0706 N   0  0  0  0  0  0  0  0  0  0  0  0
    1.1135    4.1297    1.6209 C   0  0  0  0  0  0  0  0  0  0  0  0
    0.6138    5.4115    1.3868 C   0  0  0  0  0  0  0  0  0  0  0  0
   -0.7183    5.5380    0.9353 C   0  0  0  0  0  0  0  0  0  0  0  0
   -1.5099    4.3925    0.7013 C   0  0  0  0  0  0  0  0  0  0  0  0
   -0.9950    3.1149    0.9478 C   0  0  0  0  0  0  0  0  0  0  0  0
    0.3192    3.0002    1.4331 C   0  0  0  0  0  0  0  0  0  0  0  0
    0.2978   -0.6701   -2.2050 Cl  0  0  0  0  0  0  0  0  0  0  0  0
    1.9525    0.4793   -0.0312 H   0  0  0  0  0  0  0  0  0  0  0  0
    1.2043   -1.2261    0.5080 H   0  0  0  0  0  0  0  0  0  0  0  0
    1.1859    0.4125   -0.1596 H   0  0  0  0  0  0  0  0  0  0  0  0
   -0.4890    0.4211    1.3805 H   0  0  0  0  0  0  0  0  0  0  0  0
    0.6749    0.0093    2.7026 H   0  0  0  0  0  0  0  0  0  0  0  0
    3.6595    5.3626    2.3360 H   0  0  0  0  0  0  0  0  0  0  0  0
    5.4089    1.4301    2.9317 H   0  0  0  0  0  0  0  0  0  0  0  0
    3.2859    0.3851    2.3936 H   0  0  0  0  0  0  0  0  0  0  0  0
    6.0252    5.0659    3.1268 H   0  0  0  0  0  0  0  0  0  0  0  0
    6.7101    3.4437    3.3477 H   0  0  0  0  0  0  0  0  0  0  0  0
    1.2211    6.2920    1.5444 H   0  0  0  0  0  0  0  0  0  0  0  0
   -1.1434    6.5163    0.7555 H   0  0  0  0  0  0  0  0  0  0  0  0
   -2.5242    4.5041    0.3331 H   0  0  0  0  0  0  0  0  0  0  0  0
   -1.6135    2.2445    0.7537 H   0  0  0  0  0  0  0  0  0  0  0  0
    1.6668   -0.6277   -1.9720 H   0  0  0  0  0  0  0  0  0  0  0  0
  1  2  1  0  0  0  0
  1 18  1  0  0  0  0
  1 19  1  0  0  0  0
  1 20  1  0  0  0  0
  2  3  1  0  0  0  0
  2 21  1  0  0  0  0
  2 22  1  0  0  0  0
  3  4  1  0  0  0  0
  3 16  1  0  0  0  0
  4  5  2  0  0  0  0
  4  9  1  0  0  0  0
  5  6  1  0  0  0  0
  5 11  1  0  0  0  0
  6  7  2  0  0  0  0
  6 23  1  0  0  0  0
  7  8  1  0  0  0  0
  7 10  1  0  0  0  0
  8  9  2  0  0  0  0
  8 24  1  0  0  0  0
  9 25  1  0  0  0  0
 10 26  1  0  0  0  0
 10 27  1  0  0  0  0
 11 12  2  0  0  0  0
 11 16  1  0  0  0  0
 12 13  1  0  0  0  0
 12 28  1  0  0  0  0
 13 14  2  0  0  0  0
 13 29  1  0  0  0  0
 14 15  1  0  0  0  0
 14 30  1  0  0  0  0
 15 16  2  0  0  0  0
 15 31  1  0  0  0  0
 17 32  1  0  0  0  0
M  END
$$$$

 OpenBabel05152416213D

 31 32  0  0  0  0  0  0  0  0999 V2000
    2.4011    0.0398    0.0357 C   0  0  0  0  0  0  0  0  0  0  0  0
    1.6335    1.2143   -0.0023 C   0  0  0  0  0  0  0  0  0  0  0  0
    0.2222    1.1548   -0.0747 C   0  0  0  0  0  0  0  0  0  0  0  0
   -0.3935   -0.1366   -0.1023 C   0  0  0  0  0  0  0  0  0  0  0  0
    0.3858   -1.2792   -0.0369 C   0  0  0  0  0  0  0  0  0  0  0  0
    1.7729   -1.2140    0.0188 C   0  0  0  0  0  0  0  0  0  0  0  0
    2.5328   -2.5094    0.0241 C   0  0  0  0  0  0  0  0  0  0  0  0
    2.1723   -3.2472    1.1370 F   0  0  0  0  0  0  0  0  0  0  0  0
    2.2075   -3.2257   -1.1157 F   0  0  0  0  0  0  0  0  0  0  0  0
    3.8986   -2.3014    0.0428 F   0  0  0  0  0  0  0  0  0  0  0  0
   -2.1080   -0.5014   -0.3073 Cl  0  0  0  0  0  0  0  0  0  0  0  0
   -0.4726    2.3306   -0.1764 O   0  0  0  0  0  0  0  0  0  0  0  0
   -1.8162    2.4818   -0.0389 C   0  0  0  0  0  0  0  0  0  0  0  0
   -2.5438    3.1517   -1.0265 C   0  0  0  0  0  0  0  0  0  0  0  0
   -3.9544    3.2821   -0.9444 C   0  0  0  0  0  0  0  0  0  0  0  0
   -4.6494    2.6081    0.1198 C   0  0  0  0  0  0  0  0  0  0  0  0
   -3.8774    1.9952    1.1271 C   0  0  0  0  0  0  0  0  0  0  0  0
   -2.4886    1.9686    1.0719 C   0  0  0  0  0  0  0  0  0  0  0  0
   -6.0821    2.4806    0.2189 N   0  3  0  0  0  0  0  0  0  0  0  0
   -6.7830    2.6485   -0.7360 O   0  0  0  0  0  0  0  0  0  0  0  0
   -6.6140    1.8733    1.2548 O   0  5  0  0  0  0  0  0  0  0  0  0
   -4.6231    4.1721   -1.9470 C   0  0  0  0  0  0  0  0  0  0  0  0
   -3.9804    4.6549   -2.8686 O   0  0  0  0  0  0  0  0  0  0  0  0
   -5.8835    4.6064   -1.7438 O   0  0  0  0  0  0  0  0  0  0  0  0
    3.4822    0.1075    0.0646 H   0  0  0  0  0  0  0  0  0  0  0  0
    2.1540    2.1673    0.0012 H   0  0  0  0  0  0  0  0  0  0  0  0
   -0.1076   -2.2421   -0.0615 H   0  0  0  0  0  0  0  0  0  0  0  0
   -1.9933    3.5719   -1.8619 H   0  0  0  0  0  0  0  0  0  0  0  0
   -4.3533    1.5006    1.9613 H   0  0  0  0  0  0  0  0  0  0  0  0
   -1.9364    1.4749    1.8613 H   0  0  0  0  0  0  0  0  0  0  0  0
   -6.3552    5.1951   -2.3455 H   0  0  0  0  0  0  0  0  0  0  0  0
  1  2  2  0  0  0  0
  1  6  1  0  0  0  0
  1 25  1  0  0  0  0
  2  3  1  0  0  0  0
  2 26  1  0  0  0  0
  3  4  2  0  0  0  0
  3 12  1  0  0  0  0
  4  5  1  0  0  0  0
  4 11  1  0  0  0  0
  5  6  2  0  0  0  0
  5 27  1  0  0  0  0
  6  7  1  0  0  0  0
  7  8  1  0  0  0  0
  7  9  1  0  0  0  0
  7 10  1  0  0  0  0
 12 13  1  0  0  0  0
 13 14  2  0  0  0  0
 13 18  1  0  0  0  0
 14 15  1  0  0  0  0
 14 28  1  0  0  0  0
 15 16  2  0  0  0  0
 15 22  1  0  0  0  0
 16 17  1  0  0  0  0
 16 19  1  0  0  0  0
 17 18  2  0  0  0  0
 17 29  1  0  0  0  0
 18 30  1  0  0  0  0
 19 20  2  0  0  0  0
 19 21  1  0  0  0  0
 22 23  2  0  0  0  0
 22 24  1  0  0  0  0
 24 31  1  0  0  0  0
M  CHG  2  19   1  21  -1
M  END
$$$$

 OpenBabel05152416213D

 41 43  0  0  1  0  0  0  0  0999 V2000
    1.0125    0.3298   -2.4618 C   0  0  0  0  0  0  0  0  0  0  0  0
    1.6788    0.7618   -1.1407 C   0  0  2  0  0  0  0  0  0  0  0  0
    3.1305    0.2395   -1.1154 C   0  0  0  0  0  0  0  0  0  0  0  0
    3.7800    0.4810    0.2135 C   0  0  0  0  0  0  0  0  0  0  0  0
    4.9924    0.3820    0.3183 O   0  0  0  0  0  0  0  0  0  0  0  0
    2.9713    0.7006    1.4248 C   0  0  0  0  0  0  0  0  0  0  0  0
    1.6169    0.6351    1.4116 C   0  0  0  0  0  0  0  0  0  0  0  0
    0.8758    0.3259    0.1173 C   0  0  2  0  0  0  0  0  0  0  0  0
    0.5754   -1.1274    0.1061 C   0  0  0  0  0  0  0  0  0  0  0  0
    1.4456   -1.9808    0.1042 O   0  0  0  0  0  0  0  0  0  0  0  0
   -0.8751   -1.3033    0.1000 C   0  0  0  0  0  0  0  0  0  0  0  0
   -1.3674   -0.0178    0.1068 C   0  0  0  0  0  0  0  0  0  0  0  0
   -0.3887    0.9123    0.1202 O   0  0  0  0  0  0  0  0  0  0  0  0
   -2.7402    0.2453    0.1037 C   0  0  0  0  0  0  0  0  0  0  0  0
   -3.6394   -0.8388    0.1027 C   0  0  0  0  0  0  0  0  0  0  0  0
   -3.1269   -2.1620    0.0988 C   0  0  0  0  0  0  0  0  0  0  0  0
   -1.7469   -2.4172    0.0927 C   0  0  0  0  0  0  0  0  0  0  0  0
   -1.3593   -3.7207    0.0804 O   0  0  0  0  0  0  0  0  0  0  0  0
   -0.0700   -4.1855    0.0554 C   0  0  0  0  0  0  0  0  0  0  0  0
   -4.9782   -0.5946    0.1058 O   0  0  0  0  0  0  0  0  0  0  0  0
   -5.9569   -1.5698    0.1116 C   0  0  0  0  0  0  0  0  0  0  0  0
   -3.3164    1.9073    0.1039 Cl  0  0  0  0  0  0  0  0  0  0  0  0
    0.8919    0.7486    2.5627 O   0  0  0  0  0  0  0  0  0  0  0  0
    1.4282    0.9535    3.8197 C   0  0  0  0  0  0  0  0  0  0  0  0
    1.5885    0.7236   -3.3253 H   0  0  0  0  0  0  0  0  0  0  0  0
    0.9913   -0.7802   -2.5469 H   0  0  0  0  0  0  0  0  0  0  0  0
   -0.0284    0.7065   -2.5268 H   0  0  0  0  0  0  0  0  0  0  0  0
    1.7222    1.8730   -1.1081 H   0  0  0  0  0  0  0  0  0  0  0  0
    3.6957    0.7747   -1.9070 H   0  0  0  0  0  0  0  0  0  0  0  0
    3.1951   -0.8500   -1.3255 H   0  0  0  0  0  0  0  0  0  0  0  0
    3.5125    0.8602    2.3498 H   0  0  0  0  0  0  0  0  0  0  0  0
   -3.7981   -3.0096    0.0992 H   0  0  0  0  0  0  0  0  0  0  0  0
    0.4234   -3.8362   -0.8786 H   0  0  0  0  0  0  0  0  0  0  0  0
    0.4494   -3.8622    0.9829 H   0  0  0  0  0  0  0  0  0  0  0  0
   -0.0539   -5.2883    0.0438 H   0  0  0  0  0  0  0  0  0  0  0  0
   -5.8639   -2.2062   -0.7951 H   0  0  0  0  0  0  0  0  0  0  0  0
   -5.8615   -2.1982    1.0237 H   0  0  0  0  0  0  0  0  0  0  0  0
   -6.9602   -1.0986    0.1105 H   0  0  0  0  0  0  0  0  0  0  0  0
    2.1024    0.1105    4.0910 H   0  0  0  0  0  0  0  0  0  0  0  0
    1.9972    1.9074    3.8288 H   0  0  0  0  0  0  0  0  0  0  0  0
    0.6180    1.0132    4.5725 H   0  0  0  0  0  0  0  0  0  0  0  0
  1  2  1  0  0  0  0
  1 25  1  0  0  0  0
  1 26  1  0  0  0  0
  1 27  1  0  0  0  0
  2  3  1  0  0  0  0
  2  8  1  0  0  0  0
  2 28  1  1  0  0  0
  3  4  1  0  0  0  0
  3 29  1  0  0  0  0
  3 30  1  0  0  0  0
  4  5  2  0  0  0  0
  4  6  1  0  0  0  0
  6  7  2  0  0  0  0
  6 31  1  0  0  0  0
  7 23  1  0  0  0  0
  8  7  1  1  0  0  0
  8  9  1  0  0  0  0
  8 13  1  0  0  0  0
  9 10  2  0  0  0  0
  9 11  1  0  0  0  0
 11 12  2  0  0  0  0
 11 17  1  0  0  0  0
 12 13  1  0  0  0  0
 12 14  1  0  0  0  0
 14 15  2  0  0  0  0
 14 22  1  0  0  0  0
 15 16  1  0  0  0  0
 15 20  1  0  0  0  0
 16 17  2  0  0  0  0
 16 32  1  0  0  0  0
 17 18  1  0  0  0  0
 18 19  1  0  0  0  0
 19 33  1  0  0  0  0
 19 34  1  0  0  0  0
 19 35  1  0  0  0  0
 20 21  1  0  0  0  0
 21 36  1  0  0  0  0
 21 37  1  0  0  0  0
 21 38  1  0  0  0  0
 23 24  1  0  0  0  0
 24 39  1  0  0  0  0
 24 40  1  0  0  0  0
 24 41  1  0  0  0  0
M  END
$$$$

 OpenBabel05152416213D

 33 36  0  0  0  0  0  0  0  0999 V2000
    1.4677    0.0086   -0.1065 C   0  0  0  0  0  0  0  0  0  0  0  0
    0.9915    1.2754   -0.0211 C   0  0  0  0  0  0  0  0  0  0  0  0
   -0.4515    1.5201    0.1243 C   0  0  0  0  0  0  0  0  0  0  0  0
   -1.3474    0.5913    0.0749 C   0  0  0  0  0  0  0  0  0  0  0  0
   -0.6627   -0.3513   -0.2068 C   0  0  0  0  0  0  0  0  0  0  0  0
    0.5851   -0.7663   -0.4594 C   0  0  0  0  0  0  0  0  0  0  0  0
   -2.8212    0.2442   -0.4828 C   0  0  0  0  0  0  0  0  0  0  0  0
   -3.8113   -0.6120    0.0670 C   0  0  0  0  0  0  0  0  0  0  0  0
   -3.4690   -2.0785   -0.0063 C   0  0  0  0  0  0  0  0  0  0  0  0
   -4.2257   -2.9361   -0.4389 O   0  0  0  0  0  0  0  0  0  0  0  0
   -2.2547   -2.5683    0.1961 C   0  0  0  0  0  0  0  0  0  0  0  0
   -1.6785   -2.4056   -1.1545 C   0  0  0  0  0  0  0  0  0  0  0  0
   -2.3961   -0.6812   -1.5504 O   0  0  0  0  0  0  0  0  0  0  0  0
   -0.0778   -3.3734   -0.7574 C   0  0  0  0  0  0  0  0  0  0  0  0
    0.6784   -3.2530    0.5732 C   0  0  0  0  0  0  0  0  0  0  0  0
    0.1664   -2.4519    1.4335 C   0  0  0  0  0  0  0  0  0  0  0  0
    1.0441   -1.5988    2.0481 C   0  0  0  0  0  0  0  0  0  0  0  0
    2.0711   -1.4737    2.6370 C   0  0  0  0  0  0  0  0  0  0  0  0
    1.4586   -0.6934    3.5016 C   0  0  0  0  0  0  0  0  0  0  0  0
   -1.1014   -0.8860    2.5438 C   0  0  0  0  0  0  0  0  0  0  0  0
   -1.1952   -2.1072    1.4872 C   0  0  0  0  0  0  0  0  0  0  0  0
    2.4608   -0.3660    0.0620 H   0  0  0  0  0  0  0  0  0  0  0  0
    1.6114    1.9888   -0.1338 H   0  0  0  0  0  0  0  0  0  0  0  0
   -0.9010    2.3337    0.2434 H   0  0  0  0  0  0  0  0  0  0  0  0
   -1.1142   -0.8394   -0.1292 H   0  0  0  0  0  0  0  0  0  0  0  0
    1.0412   -1.5892   -0.6515 H   0  0  0  0  0  0  0  0  0  0  0  0
   -4.8090   -0.4600   -0.4187 H   0  0  0  0  0  0  0  0  0  0  0  0
    0.4252   -4.3994   -1.0949 H   0  0  0  0  0  0  0  0  0  0  0  0
    1.8538   -3.1857    0.5234 H   0  0  0  0  0  0  0  0  0  0  0  0
    0.5598   -0.1978    1.9945 H   0  0  0  0  0  0  0  0  0  0  0  0
    2.9051   -2.1200    2.0613 H   0  0  0  0  0  0  0  0  0  0  0  0
    2.4132   -0.0176    4.0357 H   0  0  0  0  0  0  0  0  0  0  0  0
   -2.3405   -0.2441    2.0987 H   0  0  0  0  0  0  0  0  0  0  0  0
  1  2  2  0  0  0  0
  1  6  1  0  0  0  0
  1 22  1  0  0  0  0
  2  3  1  0  0  0  0
  2 23  1  0  0  0  0
  3  4  2  0  0  0  0
  3 24  1  0  0  0  0
  4  5  1  0  0  0  0
  4  7  1  0  0  0  0
  5  6  2  0  0  0  0
  5 25  1  0  0  0  0
  6 26  1  0  0  0  0
  7  8  2  0  0  0  0
  7 13  1  0  0  0  0
  8  9  1  0  0  0  0
  8 27  1  0  0  0  0
  9 10  2  0  0  0  0
  9 11  1  0  0  0  0
 11 12  2  0  0  0  0
 11 21  1  0  0  0  0
 12 13  1  0  0  0  0
 12 14  1  0  0  0  0
 14 15  2  0  0  0  0
 14 28  1  0  0  0  0
 15 16  1  0  0  0  0
 15 29  1  0  0  0  0
 16 17  2  0  0  0  0
 16 21  1  0  0  0  0
 17 18  1  0  0  0  0
 17 30  1  0  0  0  0
 18 19  2  0  0  0  0
 18 31  1  0  0  0  0
 19 20  1  0  0  0  0
 19 32  1  0  0  0  0
 20 21  2  0  0  0  0
 20 33  1  0  0  0  0
M  END
$$$$

 OpenBabel05152416213D

 46 46  0  0  0  0  0  0  0  0999 V2000
    0.6795    0.2968   -0.3054 C   0  0  0  0  0  0  0  0  0  0  0  0
    0.2516    0.0175    1.1539 C   0  0  0  0  0  0  0  0  0  0  0  0
    0.9021    0.7944    2.1848 O   0  0  0  0  0  0  0  0  0  0  0  0
    2.6321    0.7944    2.1848 P   0  0  0  0  0  0  0  0  0  0  0  0
    2.4327    1.8574    3.6213 S   0  0  0  0  0  0  0  0  0  0  0  0
    2.8303   -0.9266    1.5035 N   0  0  0  0  0  0  0  0  0  0  0  0
    3.8275   -1.9891    1.7240 C   0  0  0  0  0  0  0  0  0  0  0  0
    3.3534   -2.7066    2.8853 C   0  0  0  0  0  0  0  0  0  0  0  0
    3.6925   -3.1018    0.6428 C   0  0  0  0  0  0  0  0  0  0  0  0
    4.3621    0.7944    2.1848 O   0  0  0  0  0  0  0  0  0  0  0  0
    5.0604    0.8799    3.3870 C   0  0  0  0  0  0  0  0  0  0  0  0
    6.2266    1.6736    3.3182 C   0  0  0  0  0  0  0  0  0  0  0  0
    7.0117    1.9070    4.4470 C   0  0  0  0  0  0  0  0  0  0  0  0
    6.6602    1.3493    5.6619 C   0  0  0  0  0  0  0  0  0  0  0  0
    5.5090    0.5883    5.7913 C   0  0  0  0  0  0  0  0  0  0  0  0
    4.6432    0.3280    4.7041 C   0  0  0  0  0  0  0  0  0  0  0  0
    3.3609   -0.4563    5.1714 C   0  0  0  0  0  0  0  0  0  0  0  0
    3.2464   -0.8534    6.2942 O   0  0  0  0  0  0  0  0  0  0  0  0
    2.3403   -0.7359    4.2832 O   0  0  0  0  0  0  0  0  0  0  0  0
    1.0907   -1.3313    4.2801 C   0  0  0  0  0  0  0  0  0  0  0  0
    1.0126   -2.8347    4.6643 C   0  0  0  0  0  0  0  0  0  0  0  0
    0.0931   -0.4470    4.9633 C   0  0  0  0  0  0  0  0  0  0  0  0
    0.2811    1.2563   -0.6578 H   0  0  0  0  0  0  0  0  0  0  0  0
    0.3202   -0.5576   -0.9303 H   0  0  0  0  0  0  0  0  0  0  0  0
    1.7748    0.3385   -0.4796 H   0  0  0  0  0  0  0  0  0  0  0  0
   -0.8464    0.1383    1.2418 H   0  0  0  0  0  0  0  0  0  0  0  0
    0.3039   -1.0745    1.3297 H   0  0  0  0  0  0  0  0  0  0  0  0
    2.2225   -1.2412    0.7332 H   0  0  0  0  0  0  0  0  0  0  0  0
    4.8689   -1.6312    1.8680 H   0  0  0  0  0  0  0  0  0  0  0  0
    2.2753   -2.7761    2.5960 H   0  0  0  0  0  0  0  0  0  0  0  0
    3.7518   -3.6765    3.1404 H   0  0  0  0  0  0  0  0  0  0  0  0
    3.7260   -2.2339    3.7558 H   0  0  0  0  0  0  0  0  0  0  0  0
    4.0841   -2.7951   -0.3333 H   0  0  0  0  0  0  0  0  0  0  0  0
    4.1853   -4.0365    1.0021 H   0  0  0  0  0  0  0  0  0  0  0  0
    2.6144   -3.3872    0.5042 H   0  0  0  0  0  0  0  0  0  0  0  0
    6.5166    2.1576    2.3904 H   0  0  0  0  0  0  0  0  0  0  0  0
    7.8961    2.5312    4.3857 H   0  0  0  0  0  0  0  0  0  0  0  0
    7.2690    1.5210    6.5390 H   0  0  0  0  0  0  0  0  0  0  0  0
    5.2784    0.2178    6.7736 H   0  0  0  0  0  0  0  0  0  0  0  0
    0.7502   -1.3273    3.2569 H   0  0  0  0  0  0  0  0  0  0  0  0
    1.4871   -2.9778    5.6372 H   0  0  0  0  0  0  0  0  0  0  0  0
   -0.0194   -3.1750    4.4388 H   0  0  0  0  0  0  0  0  0  0  0  0
    1.4970   -3.6521    4.1019 H   0  0  0  0  0  0  0  0  0  0  0  0
    0.0776    0.5536    4.4745 H   0  0  0  0  0  0  0  0  0  0  0  0
   -0.9122   -0.8943    4.8242 H   0  0  0  0  0  0  0  0  0  0  0  0
    0.4115   -0.3372    6.0093 H   0  0  0  0  0  0  0  0  0  0  0  0
  1  2  1  0  0  0  0
  1 23  1  0  0  0  0
  1 24  1  0  0  0  0
  1 25  1  0  0  0  0
  2  3  1  0  0  0  0
  2 26  1  0  0  0  0
  2 27  1  0  0  0  0
  3  4  1  0  0  0  0
  4  5  2  0  0  0  0
  4  6  1  0  0  0  0
  4 10  1  0  0  0  0
  6  7  1  0  0  0  0
  6 28  1  0  0  0  0
  7  8  1  0  0  0  0
  7  9  1  0  0  0  0
  7 29  1  0  0  0  0
  8 30  1  0  0  0  0
  8 31  1  0  0  0  0
  8 32  1  0  0  0  0
  9 33  1  0  0  0  0
  9 34  1  0  0  0  0
  9 35  1  0  0  0  0
 10 11  1  0  0  0  0
 11 12  2  0  0  0  0
 11 16  1  0  0  0  0
 12 13  1  0  0  0  0
 12 36  1  0  0  0  0
 13 14  2  0  0  0  0
 13 37  1  0  0  0  0
 14 15  1  0  0  0  0
 14 38  1  0  0  0  0
 15 16  2  0  0  0  0
 15 39  1  0  0  0  0
 16 17  1  0  0  0  0
 17 18  2  0  0  0  0
 17 19  1  0  0  0  0
 19 20  1  0  0  0  0
 20 21  1  0  0  0  0
 20 22  1  0  0  0  0
 20 40  1  0  0  0  0
 21 41  1  0  0  0  0
 21 42  1  0  0  0  0
 21 43  1  0  0  0  0
 22 44  1  0  0  0  0
 22 45  1  0  0  0  0
 22 46  1  0  0  0  0
M  END
$$$$

 OpenBabel05152416213D

 26 26  0  0  0  0  0  0  0  0999 V2000
    1.1765   -0.2330    0.1543 C   0  0  0  0  0  0  0  0  0  0  0  0
    0.8097    0.9997   -0.3463 O   0  0  0  0  0  0  0  0  0  0  0  0
    1.0491    2.2932    0.8165 P   0  0  0  0  0  0  0  0  0  0  0  0
    2.3758    2.3587    0.0042 O   0  0  0  0  0  0  0  0  0  0  0  0
    0.1295    3.4215   -0.1516 O   0  0  0  0  0  0  0  0  0  0  0  0
   -0.3830    2.9644   -1.3754 C   0  0  0  0  0  0  0  0  0  0  0  0
    1.9119    3.5739    1.6812 O   0  0  0  0  0  0  0  0  0  0  0  0
    2.3204    4.8244    1.2450 C   0  0  0  0  0  0  0  0  0  0  0  0
    3.4908    5.3941    1.7902 C   0  0  0  0  0  0  0  0  0  0  0  0
    3.9835    6.6266    1.3073 C   0  0  0  0  0  0  0  0  0  0  0  0
    3.3254    7.2962    0.2532 C   0  0  0  0  0  0  0  0  0  0  0  0
    2.1476    6.7659   -0.2344 C   0  0  0  0  0  0  0  0  0  0  0  0
    1.6437    5.5924    0.2620 C   0  0  0  0  0  0  0  0  0  0  0  0
    3.8349    8.4934   -0.3278 N   0  3  0  0  0  0  0  0  0  0  0  0
    4.8493    8.9720    0.0564 O   0  0  0  0  0  0  0  0  0  0  0  0
    3.2342    9.0173   -1.3833 O   0  5  0  0  0  0  0  0  0  0  0  0
    0.7629   -0.9761   -0.5615 H   0  0  0  0  0  0  0  0  0  0  0  0
    0.7269   -0.4268    1.1487 H   0  0  0  0  0  0  0  0  0  0  0  0
    2.2793   -0.2974    0.1215 H   0  0  0  0  0  0  0  0  0  0  0  0
    0.3989    2.5616   -2.0617 H   0  0  0  0  0  0  0  0  0  0  0  0
   -1.2050    2.2564   -1.1618 H   0  0  0  0  0  0  0  0  0  0  0  0
   -0.8151    3.8392   -1.9012 H   0  0  0  0  0  0  0  0  0  0  0  0
    4.0406    4.8780    2.5698 H   0  0  0  0  0  0  0  0  0  0  0  0
    4.8866    7.0441    1.7293 H   0  0  0  0  0  0  0  0  0  0  0  0
    1.5904    7.2524   -1.0268 H   0  0  0  0  0  0  0  0  0  0  0  0
    0.7219    5.3968   -0.2051 H   0  0  0  0  0  0  0  0  0  0  0  0
  1  2  1  0  0  0  0
  1 17  1  0  0  0  0
  1 18  1  0  0  0  0
  1 19  1  0  0  0  0
  2  3  1  0  0  0  0
  3  4  2  0  0  0  0
  3  5  1  0  0  0  0
  3  7  1  0  0  0  0
  5  6  1  0  0  0  0
  6 20  1  0  0  0  0
  6 21  1  0  0  0  0
  6 22  1  0  0  0  0
  7  8  1  0  0  0  0
  8  9  2  0  0  0  0
  8 13  1  0  0  0  0
  9 10  1  0  0  0  0
  9 23  1  0  0  0  0
 10 11  2  0  0  0  0
 10 24  1  0  0  0  0
 11 12  1  0  0  0  0
 11 14  1  0  0  0  0
 12 13  2  0  0  0  0
 12 25  1  0  0  0  0
 13 26  1  0  0  0  0
 14 15  2  0  0  0  0
 14 16  1  0  0  0  0
M  CHG  2  14   1  16  -1
M  END
$$$$

 OpenBabel05152416213D

 30 30  0  0  0  0  0  0  0  0999 V2000
    1.3670   -0.2992    0.0157 C   0  0  0  0  0  0  0  0  0  0  0  0
    0.5678   -0.5756    1.2981 C   0  0  0  0  0  0  0  0  0  0  0  0
    1.1084    0.2826    2.4497 C   0  0  0  0  0  0  0  0  0  0  0  0
   -0.9775   -0.4371    1.2173 C   0  0  0  0  0  0  0  0  0  0  0  0
   -1.6178   -1.4631    1.4090 O   0  0  0  0  0  0  0  0  0  0  0  0
   -1.6831    0.7459    1.0689 N   0  0  0  0  0  0  0  0  0  0  0  0
   -1.0987    2.0245    0.7992 C   0  0  0  0  0  0  0  0  0  0  0  0
   -1.4544    3.1902    1.4837 C   0  0  0  0  0  0  0  0  0  0  0  0
   -0.8325    4.4332    1.1600 C   0  0  0  0  0  0  0  0  0  0  0  0
    0.3072    4.4541    0.2875 C   0  0  0  0  0  0  0  0  0  0  0  0
    0.5666    3.2814   -0.4231 C   0  0  0  0  0  0  0  0  0  0  0  0
   -0.2039    2.1499   -0.2354 C   0  0  0  0  0  0  0  0  0  0  0  0
    1.1670    5.5829    0.0381 N   0  3  0  0  0  0  0  0  0  0  0  0
    1.1553    6.5412    0.7588 O   0  0  0  0  0  0  0  0  0  0  0  0
    2.1655    5.4742   -0.8075 O   0  5  0  0  0  0  0  0  0  0  0  0
   -1.5476    5.6611    1.6640 C   0  0  0  0  0  0  0  0  0  0  0  0
   -2.8672    5.5184    1.2668 F   0  0  0  0  0  0  0  0  0  0  0  0
   -1.4877    5.7571    3.0357 F   0  0  0  0  0  0  0  0  0  0  0  0
   -1.1393    6.8395    1.0811 F   0  0  0  0  0  0  0  0  0  0  0  0
    1.6324    0.7568   -0.0496 H   0  0  0  0  0  0  0  0  0  0  0  0
    0.8361   -0.7164   -0.8749 H   0  0  0  0  0  0  0  0  0  0  0  0
    2.4111   -0.6411    0.0355 H   0  0  0  0  0  0  0  0  0  0  0  0
    0.7994   -1.6445    1.5199 H   0  0  0  0  0  0  0  0  0  0  0  0
    0.8310    1.3471    2.3180 H   0  0  0  0  0  0  0  0  0  0  0  0
    0.6911   -0.0604    3.4180 H   0  0  0  0  0  0  0  0  0  0  0  0
    2.2156    0.2426    2.4803 H   0  0  0  0  0  0  0  0  0  0  0  0
   -2.7025    0.7111    1.2276 H   0  0  0  0  0  0  0  0  0  0  0  0
   -2.2442    3.1398    2.2270 H   0  0  0  0  0  0  0  0  0  0  0  0
    1.3560    3.2349   -1.1592 H   0  0  0  0  0  0  0  0  0  0  0  0
   -0.0912    1.3264   -0.9020 H   0  0  0  0  0  0  0  0  0  0  0  0
  1  2  1  0  0  0  0
  1 20  1  0  0  0  0
  1 21  1  0  0  0  0
  1 22  1  0  0  0  0
  2  3  1  0  0  0  0
  2  4  1  0  0  0  0
  2 23  1  0  0  0  0
  3 24  1  0  0  0  0
  3 25  1  0  0  0  0
  3 26  1  0  0  0  0
  4  5  2  0  0  0  0
  4  6  1  0  0  0  0
  6  7  1  0  0  0  0
  6 27  1  0  0  0  0
  7  8  2  0  0  0  0
  7 12  1  0  0  0  0
  8  9  1  0  0  0  0
  8 28  1  0  0  0  0
  9 10  2  0  0  0  0
  9 16  1  0  0  0  0
 10 11  1  0  0  0  0
 10 13  1  0  0  0  0
 11 12  2  0  0  0  0
 11 29  1  0  0  0  0
 12 30  1  0  0  0  0
 13 14  2  0  0  0  0
 13 15  1  0  0  0  0
 16 17  1  0  0  0  0
 16 18  1  0  0  0  0
 16 19  1  0  0  0  0
M  CHG  2  13   1  15  -1
M  END
$$$$

 OpenBabel05152416213D

108111  0  0  0  0  0  0  0  0999 V2000
   -3.1419   -0.4728    0.0242 C   0  0  0  0  0  0  0  0  0  0  0  0
   -1.6812   -0.0539   -0.0124 C   0  0  0  0  0  0  0  0  0  0  0  0
   -0.7230   -1.0852   -0.0033 C   0  0  0  0  0  0  0  0  0  0  0  0
    0.6716   -0.8168   -0.0060 C   0  0  0  0  0  0  0  0  0  0  0  0
    1.0938    0.5248   -0.0505 C   0  0  0  0  0  0  0  0  0  0  0  0
    0.1635    1.5300   -0.1576 C   0  0  0  0  0  0  0  0  0  0  0  0
   -1.2277    1.2937   -0.0846 C   0  0  0  0  0  0  0  0  0  0  0  0
   -2.1546    2.5059   -0.0547 C   0  0  0  0  0  0  0  0  0  0  0  0
   -1.9357    3.2610    1.2123 N   0  0  0  0  0  0  0  0  0  0  0  0
   -2.6893    2.8593    2.2823 C   0  0  0  0  0  0  0  0  0  0  0  0
   -3.2993    1.8216    2.2580 O   0  0  0  0  0  0  0  0  0  0  0  0
   -2.7059    3.6001    3.4108 N   0  0  0  0  0  0  0  0  0  0  0  0
   -1.4837    4.0467    3.7240 C   0  0  0  0  0  0  0  0  0  0  0  0
   -1.1446    4.0212    4.8917 O   0  0  0  0  0  0  0  0  0  0  0  0
   -0.6505    4.5241    2.7426 N   0  0  0  0  0  0  0  0  0  0  0  0
   -1.0372    4.2854    1.4445 C   0  0  0  0  0  0  0  0  0  0  0  0
   -0.4801    4.8886    0.5481 O   0  0  0  0  0  0  0  0  0  0  0  0
    0.5959    5.2379    3.0375 C   0  0  0  0  0  0  0  0  0  0  0  0
    0.3601    6.7336    3.1437 C   0  0  0  0  0  0  0  0  0  0  0  0
    0.9714    7.6291    2.2296 C   0  0  0  0  0  0  0  0  0  0  0  0
    0.7440    9.0110    2.3464 C   0  0  0  0  0  0  0  0  0  0  0  0
   -0.1272    9.5135    3.3572 C   0  0  0  0  0  0  0  0  0  0  0  0
   -0.7007    8.6057    4.2351 C   0  0  0  0  0  0  0  0  0  0  0  0
   -0.4649    7.2779    4.1585 C   0  0  0  0  0  0  0  0  0  0  0  0
   -1.1791    6.5149    5.1865 C   0  0  0  0  0  0  0  0  0  0  0  0
   -0.4767   10.9864    3.5281 C   0  0  0  0  0  0  0  0  0  0  0  0
    0.8010   11.7614    3.8914 C   0  0  0  0  0  0  0  0  0  0  0  0
   -1.1554   11.4907    2.2399 C   0  0  0  0  0  0  0  0  0  0  0  0
   -1.4890   11.2347    4.6826 C   0  0  0  0  0  0  0  0  0  0  0  0
    1.3800    9.7999    1.4524 O   0  0  0  0  0  0  0  0  0  0  0  0
    1.8631    7.1419    1.1054 C   0  0  0  0  0  0  0  0  0  0  0  0
   -3.8687    3.7091    4.3286 C   0  0  0  0  0  0  0  0  0  0  0  0
   -5.0870    4.4992    3.7116 C   0  0  0  0  0  0  0  0  0  0  0  0
   -5.5674    5.7208    4.3039 C   0  0  0  0  0  0  0  0  0  0  0  0
   -6.6793    6.4116    3.7655 C   0  0  0  0  0  0  0  0  0  0  0  0
   -7.3374    5.9204    2.6070 C   0  0  0  0  0  0  0  0  0  0  0  0
   -6.8782    4.7280    2.0635 C   0  0  0  0  0  0  0  0  0  0  0  0
   -5.8217    4.0288    2.5777 C   0  0  0  0  0  0  0  0  0  0  0  0
   -5.5564    2.7949    1.8111 C   0  0  0  0  0  0  0  0  0  0  0  0
   -8.5096    6.6322    1.9225 C   0  0  0  0  0  0  0  0  0  0  0  0
   -9.7098    6.6870    2.8861 C   0  0  0  0  0  0  0  0  0  0  0  0
   -8.0460    8.0278    1.4544 C   0  0  0  0  0  0  0  0  0  0  0  0
   -9.0018    5.8888    0.6491 C   0  0  0  0  0  0  0  0  0  0  0  0
   -7.0582    7.5470    4.4025 O   0  0  0  0  0  0  0  0  0  0  0  0
   -4.9156    6.3316    5.5205 C   0  0  0  0  0  0  0  0  0  0  0  0
    0.7312    2.8623   -0.4241 C   0  0  0  0  0  0  0  0  0  0  0  0
    2.4072    0.8648   -0.0193 O   0  0  0  0  0  0  0  0  0  0  0  0
    1.6734   -1.9811   -0.0235 C   0  0  0  0  0  0  0  0  0  0  0  0
    1.4482   -2.8741    1.1994 C   0  0  0  0  0  0  0  0  0  0  0  0
    1.4553   -2.7677   -1.3237 C   0  0  0  0  0  0  0  0  0  0  0  0
    3.1551   -1.5396   -0.0044 C   0  0  0  0  0  0  0  0  0  0  0  0
   -3.3663   -1.0720   -0.8826 H   0  0  0  0  0  0  0  0  0  0  0  0
   -3.3489   -1.0742    0.9340 H   0  0  0  0  0  0  0  0  0  0  0  0
   -3.8898    0.3305    0.0312 H   0  0  0  0  0  0  0  0  0  0  0  0
   -1.0772   -2.1104    0.0144 H   0  0  0  0  0  0  0  0  0  0  0  0
   -2.1117    3.1318   -0.9569 H   0  0  0  0  0  0  0  0  0  0  0  0
   -3.2049    2.2095   -0.0933 H   0  0  0  0  0  0  0  0  0  0  0  0
    1.0905    4.8204    3.9393 H   0  0  0  0  0  0  0  0  0  0  0  0
    1.3275    4.9959    2.2413 H   0  0  0  0  0  0  0  0  0  0  0  0
   -1.3779    8.8913    5.0204 H   0  0  0  0  0  0  0  0  0  0  0  0
   -2.0214    6.1296    4.5975 H   0  0  0  0  0  0  0  0  0  0  0  0
   -0.4210    5.9005    5.7095 H   0  0  0  0  0  0  0  0  0  0  0  0
   -1.7288    7.0326    5.9919 H   0  0  0  0  0  0  0  0  0  0  0  0
    1.6135   11.6907    3.1595 H   0  0  0  0  0  0  0  0  0  0  0  0
    0.5637   12.8345    4.0050 H   0  0  0  0  0  0  0  0  0  0  0  0
    1.2223   11.3607    4.8405 H   0  0  0  0  0  0  0  0  0  0  0  0
   -2.0846   10.9081    2.0478 H   0  0  0  0  0  0  0  0  0  0  0  0
   -1.4002   12.5636    2.3421 H   0  0  0  0  0  0  0  0  0  0  0  0
   -0.5519   11.3878    1.3299 H   0  0  0  0  0  0  0  0  0  0  0  0
   -2.4441   10.6890    4.4867 H   0  0  0  0  0  0  0  0  0  0  0  0
   -1.0641   10.8894    5.6552 H   0  0  0  0  0  0  0  0  0  0  0  0
   -1.7303   12.3046    4.7893 H   0  0  0  0  0  0  0  0  0  0  0  0
    1.3818   10.7524    1.3800 H   0  0  0  0  0  0  0  0  0  0  0  0
    2.7209    6.5767    1.5160 H   0  0  0  0  0  0  0  0  0  0  0  0
    1.2736    6.5185    0.4103 H   0  0  0  0  0  0  0  0  0  0  0  0
    2.2877    7.9535    0.4840 H   0  0  0  0  0  0  0  0  0  0  0  0
   -4.1816    2.7202    4.6602 H   0  0  0  0  0  0  0  0  0  0  0  0
   -3.5337    4.2832    5.2165 H   0  0  0  0  0  0  0  0  0  0  0  0
   -7.3264    4.2894    1.1891 H   0  0  0  0  0  0  0  0  0  0  0  0
   -4.7576    3.1054    1.1195 H   0  0  0  0  0  0  0  0  0  0  0  0
   -5.5035    1.9543    2.5334 H   0  0  0  0  0  0  0  0  0  0  0  0
   -6.2716    2.4607    1.0385 H   0  0  0  0  0  0  0  0  0  0  0  0
   -9.5248    7.2010    3.8358 H   0  0  0  0  0  0  0  0  0  0  0  0
  -10.5544    7.2122    2.4013 H   0  0  0  0  0  0  0  0  0  0  0  0
  -10.0133    5.6532    3.1623 H   0  0  0  0  0  0  0  0  0  0  0  0
   -7.2003    7.9258    0.7380 H   0  0  0  0  0  0  0  0  0  0  0  0
   -8.8840    8.5610    0.9670 H   0  0  0  0  0  0  0  0  0  0  0  0
   -7.6767    8.6844    2.2518 H   0  0  0  0  0  0  0  0  0  0  0  0
   -8.1762    5.8101   -0.0983 H   0  0  0  0  0  0  0  0  0  0  0  0
   -9.3598    4.8651    0.9095 H   0  0  0  0  0  0  0  0  0  0  0  0
   -9.8406    6.4188    0.1654 H   0  0  0  0  0  0  0  0  0  0  0  0
   -7.7787    8.1481    4.2135 H   0  0  0  0  0  0  0  0  0  0  0  0
   -4.9171    5.6118    6.3588 H   0  0  0  0  0  0  0  0  0  0  0  0
   -3.9091    6.6408    5.2455 H   0  0  0  0  0  0  0  0  0  0  0  0
   -5.3902    7.2609    5.8952 H   0  0  0  0  0  0  0  0  0  0  0  0
    1.2324    3.2096    0.5115 H   0  0  0  0  0  0  0  0  0  0  0  0
    1.4609    2.8899   -1.2493 H   0  0  0  0  0  0  0  0  0  0  0  0
   -0.0283    3.4265   -0.9564 H   0  0  0  0  0  0  0  0  0  0  0  0
    2.8206    1.7376    0.0146 H   0  0  0  0  0  0  0  0  0  0  0  0
    0.4268   -3.3027    1.2014 H   0  0  0  0  0  0  0  0  0  0  0  0
    2.1758   -3.7111    1.1849 H   0  0  0  0  0  0  0  0  0  0  0  0
    1.5887   -2.2817    2.1302 H   0  0  0  0  0  0  0  0  0  0  0  0
    1.6012   -2.0941   -2.1999 H   0  0  0  0  0  0  0  0  0  0  0  0
    2.1825   -3.6011   -1.3888 H   0  0  0  0  0  0  0  0  0  0  0  0
    0.4303   -3.1860   -1.3768 H   0  0  0  0  0  0  0  0  0  0  0  0
    3.3799   -0.9338   -0.9149 H   0  0  0  0  0  0  0  0  0  0  0  0
    3.3598   -0.9714    0.9352 H   0  0  0  0  0  0  0  0  0  0  0  0
    3.8633   -2.3799   -0.0285 H   0  0  0  0  0  0  0  0  0  0  0  0
  1  2  1  0  0  0  0
  1 52  1  0  0  0  0
  1 53  1  0  0  0  0
  1 54  1  0  0  0  0
  2  3  2  0  0  0  0
  2  7  1  0  0  0  0
  3  4  1  0  0  0  0
  3 55  1  0  0  0  0
  4  5  2  0  0  0  0
  4 48  1  0  0  0  0
  5  6  1  0  0  0  0
  5 47  1  0  0  0  0
  6  7  2  0  0  0  0
  6 46  1  0  0  0  0
  7  8  1  0  0  0  0
  8  9  1  0  0  0  0
  8 56  1  0  0  0  0
  8 57  1  0  0  0  0
  9 10  1  0  0  0  0
  9 16  1  0  0  0  0
 10 11  2  0  0  0  0
 10 12  1  0  0  0  0
 12 13  1  0  0  0  0
 12 32  1  0  0  0  0
 13 14  2  0  0  0  0
 13 15  1  0  0  0  0
 15 16  1  0  0  0  0
 15 18  1  0  0  0  0
 16 17  2  0  0  0  0
 18 19  1  0  0  0  0
 18 58  1  0  0  0  0
 18 59  1  0  0  0  0
 19 20  2  0  0  0  0
 19 24  1  0  0  0  0
 20 21  1  0  0  0  0
 20 31  1  0  0  0  0
 21 22  2  0  0  0  0
 21 30  1  0  0  0  0
 22 23  1  0  0  0  0
 22 26  1  0  0  0  0
 23 24  2  0  0  0  0
 23 60  1  0  0  0  0
 24 25  1  0  0  0  0
 25 61  1  0  0  0  0
 25 62  1  0  0  0  0
 25 63  1  0  0  0  0
 26 27  1  0  0  0  0
 26 28  1  0  0  0  0
 26 29  1  0  0  0  0
 27 64  1  0  0  0  0
 27 65  1  0  0  0  0
 27 66  1  0  0  0  0
 28 67  1  0  0  0  0
 28 68  1  0  0  0  0
 28 69  1  0  0  0  0
 29 70  1  0  0  0  0
 29 71  1  0  0  0  0
 29 72  1  0  0  0  0
 30 73  1  0  0  0  0
 31 74  1  0  0  0  0
 31 75  1  0  0  0  0
 31 76  1  0  0  0  0
 32 33  1  0  0  0  0
 32 77  1  0  0  0  0
 32 78  1  0  0  0  0
 33 34  2  0  0  0  0
 33 38  1  0  0  0  0
 34 35  1  0  0  0  0
 34 45  1  0  0  0  0
 35 36  2  0  0  0  0
 35 44  1  0  0  0  0
 36 37  1  0  0  0  0
 36 40  1  0  0  0  0
 37 38  2  0  0  0  0
 37 79  1  0  0  0  0
 38 39  1  0  0  0  0
 39 80  1  0  0  0  0
 39 81  1  0  0  0  0
 39 82  1  0  0  0  0
 40 41  1  0  0  0  0
 40 42  1  0  0  0  0
 40 43  1  0  0  0  0
 41 83  1  0  0  0  0
 41 84  1  0  0  0  0
 41 85  1  0  0  0  0
 42 86  1  0  0  0  0
 42 87  1  0  0  0  0
 42 88  1  0  0  0  0
 43 89  1  0  0  0  0
 43 90  1  0  0  0  0
 43 91  1  0  0  0  0
 44 92  1  0  0  0  0
 45 93  1  0  0  0  0
 45 94  1  0  0  0  0
 45 95  1  0  0  0  0
 46 96  1  0  0  0  0
 46 97  1  0  0  0  0
 46 98  1  0  0  0  0
 47 99  1  0  0  0  0
 48 49  1  0  0  0  0
 48 50  1  0  0  0  0
 48 51  1  0  0  0  0
 49100  1  0  0  0  0
 49101  1  0  0  0  0
 49102  1  0  0  0  0
 50103  1  0  0  0  0
 50104  1  0  0  0  0
 50105  1  0  0  0  0
 51106  1  0  0  0  0
 51107  1  0  0  0  0
 51108  1  0  0  0  0
M  END
$$$$

 OpenBabel05152416213D

 54 55  0  0  0  0  0  0  0  0999 V2000
    1.0064    0.1107   -0.2271 C   0  0  0  0  0  0  0  0  0  0  0  0
    0.5655   -1.3644   -0.3164 C   0  0  0  0  0  0  0  0  0  0  0  0
    1.0554   -2.2202    0.8706 C   0  0  0  0  0  0  0  0  0  0  0  0
    0.5527   -1.6801    2.1888 C   0  0  0  0  0  0  0  0  0  0  0  0
   -0.9927   -1.6287    2.3372 C   0  0  0  0  0  0  0  0  0  0  0  0
   -1.6218   -3.0342    2.3114 C   0  0  0  0  0  0  0  0  0  0  0  0
   -1.1309   -3.9233    3.4587 C   0  0  0  0  0  0  0  0  0  0  0  0
   -1.3695   -0.8559    3.5966 C   0  0  0  0  0  0  0  0  0  0  0  0
   -0.8079    0.3942    3.5153 O   0  0  0  0  0  0  0  0  0  0  0  0
    0.4099    0.7716    3.9569 C   0  0  0  0  0  0  0  0  0  0  0  0
    1.1963   -0.0531    4.4417 O   0  0  0  0  0  0  0  0  0  0  0  0
    0.8381    2.1601    3.8165 C   0  0  0  0  0  0  0  0  0  0  0  0
   -0.0614    3.2082    3.8372 C   0  0  0  0  0  0  0  0  0  0  0  0
    0.4064    4.6323    3.8413 C   0  0  0  0  0  0  0  0  0  0  0  0
   -0.2193    5.5481    4.7173 C   0  0  0  0  0  0  0  0  0  0  0  0
    0.1980    6.8779    4.7728 C   0  0  0  0  0  0  0  0  0  0  0  0
    1.2404    7.3140    3.9550 C   0  0  0  0  0  0  0  0  0  0  0  0
    1.8733    6.4180    3.0912 C   0  0  0  0  0  0  0  0  0  0  0  0
    1.4629    5.0868    3.0350 C   0  0  0  0  0  0  0  0  0  0  0  0
   -1.5491    3.0190    3.9937 C   0  0  0  0  0  0  0  0  0  0  0  0
   -2.4159    3.7939    3.1995 C   0  0  0  0  0  0  0  0  0  0  0  0
   -3.7970    3.5872    3.2456 C   0  0  0  0  0  0  0  0  0  0  0  0
   -4.3316    2.6024    4.0793 C   0  0  0  0  0  0  0  0  0  0  0  0
   -3.4910    1.8541    4.9006 C   0  0  0  0  0  0  0  0  0  0  0  0
   -2.1176    2.0813    4.8828 C   0  0  0  0  0  0  0  0  0  0  0  0
    2.3325    2.4372    3.8343 C   0  0  0  0  0  0  0  0  0  0  0  0
    3.5722    2.6672    3.8490 N   0  0  0  0  0  0  0  0  0  0  0  0
    0.5540    0.6539    0.6323 H   0  0  0  0  0  0  0  0  0  0  0  0
    0.6768    0.6566   -1.1312 H   0  0  0  0  0  0  0  0  0  0  0  0
    2.1120    0.1686   -0.1399 H   0  0  0  0  0  0  0  0  0  0  0  0
   -0.5393   -1.4092   -0.4037 H   0  0  0  0  0  0  0  0  0  0  0  0
    0.9823   -1.8067   -1.2388 H   0  0  0  0  0  0  0  0  0  0  0  0
    0.7543   -3.2798    0.7620 H   0  0  0  0  0  0  0  0  0  0  0  0
    2.1662   -2.1908    0.9085 H   0  0  0  0  0  0  0  0  0  0  0  0
    1.0134   -2.2078    3.0458 H   0  0  0  0  0  0  0  0  0  0  0  0
    0.9881   -0.6844    2.2008 H   0  0  0  0  0  0  0  0  0  0  0  0
   -1.4345   -1.0404    1.5042 H   0  0  0  0  0  0  0  0  0  0  0  0
   -2.7295   -2.9533    2.3562 H   0  0  0  0  0  0  0  0  0  0  0  0
   -1.3776   -3.5158    1.3427 H   0  0  0  0  0  0  0  0  0  0  0  0
   -1.4473   -3.5075    4.4361 H   0  0  0  0  0  0  0  0  0  0  0  0
   -1.5552   -4.9376    3.3559 H   0  0  0  0  0  0  0  0  0  0  0  0
   -0.0284   -4.0272    3.4525 H   0  0  0  0  0  0  0  0  0  0  0  0
   -2.4768   -0.7422    3.6302 H   0  0  0  0  0  0  0  0  0  0  0  0
   -1.0550   -1.3432    4.5411 H   0  0  0  0  0  0  0  0  0  0  0  0
   -1.0158    5.2290    5.3815 H   0  0  0  0  0  0  0  0  0  0  0  0
   -0.2858    7.5677    5.4532 H   0  0  0  0  0  0  0  0  0  0  0  0
    1.5597    8.3457    3.9909 H   0  0  0  0  0  0  0  0  0  0  0  0
    2.6832    6.7511    2.4584 H   0  0  0  0  0  0  0  0  0  0  0  0
    1.9617    4.4235    2.3443 H   0  0  0  0  0  0  0  0  0  0  0  0
   -2.0183    4.5341    2.5150 H   0  0  0  0  0  0  0  0  0  0  0  0
   -4.4511    4.1756    2.6167 H   0  0  0  0  0  0  0  0  0  0  0  0
   -5.3966    2.4192    4.0930 H   0  0  0  0  0  0  0  0  0  0  0  0
   -3.8957    1.0851    5.5454 H   0  0  0  0  0  0  0  0  0  0  0  0
   -1.4942    1.4879    5.5396 H   0  0  0  0  0  0  0  0  0  0  0  0
  1  2  1  0  0  0  0
  1 28  1  0  0  0  0
  1 29  1  0  0  0  0
  1 30  1  0  0  0  0
  2  3  1  0  0  0  0
  2 31  1  0  0  0  0
  2 32  1  0  0  0  0
  3  4  1  0  0  0  0
  3 33  1  0  0  0  0
  3 34  1  0  0  0  0
  4  5  1  0  0  0  0
  4 35  1  0  0  0  0
  4 36  1  0  0  0  0
  5  6  1  0  0  0  0
  5  8  1  0  0  0  0
  5 37  1  0  0  0  0
  6  7  1  0  0  0  0
  6 38  1  0  0  0  0
  6 39  1  0  0  0  0
  7 40  1  0  0  0  0
  7 41  1  0  0  0  0
  7 42  1  0  0  0  0
  8  9  1  0  0  0  0
  8 43  1  0  0  0  0
  8 44  1  0  0  0  0
  9 10  1  0  0  0  0
 10 11  2  0  0  0  0
 10 12  1  0  0  0  0
 12 13  2  0  0  0  0
 12 26  1  0  0  0  0
 13 14  1  0  0  0  0
 13 20  1  0  0  0  0
 14 15  2  0  0  0  0
 14 19  1  0  0  0  0
 15 16  1  0  0  0  0
 15 45  1  0  0  0  0
 16 17  2  0  0  0  0
 16 46  1  0  0  0  0
 17 18  1  0  0  0  0
 17 47  1  0  0  0  0
 18 19  2  0  0  0  0
 18 48  1  0  0  0  0
 19 49  1  0  0  0  0
 20 21  2  0  0  0  0
 20 25  1  0  0  0  0
 21 22  1  0  0  0  0
 21 50  1  0  0  0  0
 22 23  2  0  0  0  0
 22 51  1  0  0  0  0
 23 24  1  0  0  0  0
 23 52  1  0  0  0  0
 24 25  2  0  0  0  0
 24 53  1  0  0  0  0
 25 54  1  0  0  0  0
 26 27  3  0  0  0  0
M  END
$$$$

 OpenBabel05152416213D

 21 21  0  0  0  0  0  0  0  0999 V2000
    0.8455   -0.1105    0.1053 C   0  0  0  0  0  0  0  0  0  0  0  0
    0.5131    0.6739    1.3751 C   0  0  0  0  0  0  0  0  0  0  0  0
    1.0874    1.9435    1.4593 O   0  0  0  0  0  0  0  0  0  0  0  0
    2.4110    2.2467    1.4625 C   0  0  0  0  0  0  0  0  0  0  0  0
    3.3092    1.7154    0.5193 C   0  0  0  0  0  0  0  0  0  0  0  0
    4.6617    1.9824    0.5887 C   0  0  0  0  0  0  0  0  0  0  0  0
    5.1648    2.8274    1.5739 C   0  0  0  0  0  0  0  0  0  0  0  0
    4.2811    3.4221    2.4909 C   0  0  0  0  0  0  0  0  0  0  0  0
    2.9102    3.1316    2.4362 C   0  0  0  0  0  0  0  0  0  0  0  0
    6.5525    3.0781    1.6195 N   0  0  0  0  0  0  0  0  0  0  0  0
    0.6606    0.5181   -0.7935 H   0  0  0  0  0  0  0  0  0  0  0  0
    0.2348   -1.0306    0.0439 H   0  0  0  0  0  0  0  0  0  0  0  0
    1.8790   -0.5004    0.1418 H   0  0  0  0  0  0  0  0  0  0  0  0
   -0.5883    0.8034    1.4071 H   0  0  0  0  0  0  0  0  0  0  0  0
    0.8106    0.0671    2.2579 H   0  0  0  0  0  0  0  0  0  0  0  0
    3.0083    1.1027   -0.2991 H   0  0  0  0  0  0  0  0  0  0  0  0
    5.3200    1.5262   -0.1389 H   0  0  0  0  0  0  0  0  0  0  0  0
    4.6586    4.0963    3.2499 H   0  0  0  0  0  0  0  0  0  0  0  0
    2.2395    3.5821    3.1606 H   0  0  0  0  0  0  0  0  0  0  0  0
    6.9536    3.7186    2.3175 H   0  0  0  0  0  0  0  0  0  0  0  0
    7.1827    2.6133    0.9470 H   0  0  0  0  0  0  0  0  0  0  0  0
  1  2  1  0  0  0  0
  1 11  1  0  0  0  0
  1 12  1  0  0  0  0
  1 13  1  0  0  0  0
  2  3  1  0  0  0  0
  2 14  1  0  0  0  0
  2 15  1  0  0  0  0
  3  4  1  0  0  0  0
  4  5  2  0  0  0  0
  4  9  1  0  0  0  0
  5  6  1  0  0  0  0
  5 16  1  0  0  0  0
  6  7  2  0  0  0  0
  6 17  1  0  0  0  0
  7  8  1  0  0  0  0
  7 10  1  0  0  0  0
  8  9  2  0  0  0  0
  8 18  1  0  0  0  0
  9 19  1  0  0  0  0
 10 20  1  0  0  0  0
 10 21  1  0  0  0  0
M  END
$$$$

 OpenBabel05152416213D

 25 26  0  0  0  0  0  0  0  0999 V2000
    0.2171   -1.2121   -0.0191 C   0  0  0  0  0  0  0  0  0  0  0  0
   -1.1855   -1.1812   -0.0075 C   0  0  0  0  0  0  0  0  0  0  0  0
   -1.8670    0.0477    0.0142 C   0  0  0  0  0  0  0  0  0  0  0  0
   -1.1074    1.2394    0.0242 C   0  0  0  0  0  0  0  0  0  0  0  0
    0.2781    1.2057    0.0021 C   0  0  0  0  0  0  0  0  0  0  0  0
    0.9526   -0.0154   -0.0144 C   0  0  0  0  0  0  0  0  0  0  0  0
    2.3666   -0.0296   -0.0133 N   0  0  0  0  0  0  0  0  0  0  0  0
   -3.2289    0.0646    0.0710 O   0  0  0  0  0  0  0  0  0  0  0  0
   -3.9698    1.2030    0.0161 C   0  0  0  0  0  0  0  0  0  0  0  0
   -3.8209    2.1199   -1.0417 C   0  0  0  0  0  0  0  0  0  0  0  0
   -4.5116    3.3334   -1.0227 C   0  0  0  0  0  0  0  0  0  0  0  0
   -5.3658    3.6341    0.0421 C   0  0  0  0  0  0  0  0  0  0  0  0
   -5.5449    2.7094    1.0776 C   0  0  0  0  0  0  0  0  0  0  0  0
   -4.8532    1.4932    1.0608 C   0  0  0  0  0  0  0  0  0  0  0  0
   -6.1992    5.1765    0.0852 Cl  0  0  0  0  0  0  0  0  0  0  0  0
    0.7331   -2.1644   -0.0243 H   0  0  0  0  0  0  0  0  0  0  0  0
   -1.7383   -2.1134   -0.0023 H   0  0  0  0  0  0  0  0  0  0  0  0
   -1.5710    2.2123    0.0641 H   0  0  0  0  0  0  0  0  0  0  0  0
    0.8248    2.1398    0.0104 H   0  0  0  0  0  0  0  0  0  0  0  0
    2.8866   -0.9179   -0.0065 H   0  0  0  0  0  0  0  0  0  0  0  0
    2.8957    0.8559   -0.0017 H   0  0  0  0  0  0  0  0  0  0  0  0
   -3.1454    1.9057   -1.8609 H   0  0  0  0  0  0  0  0  0  0  0  0
   -4.3659    4.0446   -1.8257 H   0  0  0  0  0  0  0  0  0  0  0  0
   -6.2028    2.9402    1.9050 H   0  0  0  0  0  0  0  0  0  0  0  0
   -4.9746    0.7948    1.8791 H   0  0  0  0  0  0  0  0  0  0  0  0
  1  2  2  0  0  0  0
  1  6  1  0  0  0  0
  1 16  1  0  0  0  0
  2  3  1  0  0  0  0
  2 17  1  0  0  0  0
  3  4  2  0  0  0  0
  3  8  1  0  0  0  0
  4  5  1  0  0  0  0
  4 18  1  0  0  0  0
  5  6  2  0  0  0  0
  5 19  1  0  0  0  0
  6  7  1  0  0  0  0
  7 20  1  0  0  0  0
  7 21  1  0  0  0  0
  8  9  1  0  0  0  0
  9 10  2  0  0  0  0
  9 14  1  0  0  0  0
 10 11  1  0  0  0  0
 10 22  1  0  0  0  0
 11 12  2  0  0  0  0
 11 23  1  0  0  0  0
 12 13  1  0  0  0  0
 12 15  1  0  0  0  0
 13 14  2  0  0  0  0
 13 24  1  0  0  0  0
 14 25  1  0  0  0  0
M  END
$$$$

 OpenBabel05152416213D

 35 34  0  0  0  0  0  0  0  0999 V2000
    1.5734    0.8704    0.9645 C   0  0  0  0  0  0  0  0  0  0  0  0
    0.5263    1.3400   -1.6112 C   0  0  0  0  0  0  0  0  0  0  0  0
    1.8209    0.0898   -2.9000 C   0  0  0  0  0  0  0  0  0  0  0  0
    1.5394   -2.6226   -1.5227 Cl  0  0  0  0  0  0  0  0  0  0  0  0
   -0.9929    0.4088   -1.3826 O   0  0  0  0  0  0  0  0  0  0  0  0
   -1.5696   -1.1946   -1.0836 P   0  0  0  0  0  0  0  0  0  0  0  0
   -2.9706   -0.8604   -1.6524 O   0  0  0  0  0  0  0  0  0  0  0  0
   -1.0760   -1.8357   -2.5649 O   0  0  0  0  0  0  0  0  0  0  0  0
   -0.0842   -1.0307   -2.8488 C   0  0  0  0  0  0  0  0  0  0  0  0
   -0.9049    0.2000   -3.7667 C   0  0  0  0  0  0  0  0  0  0  0  0
   -2.4210    1.2141   -3.3074 Cl  0  0  0  0  0  0  0  0  0  0  0  0
    1.1796   -0.5329   -0.8458 C   0  0  0  0  0  0  0  0  0  0  0  0
    3.2595   -0.9445   -0.7288 Cl  0  0  0  0  0  0  0  0  0  0  0  0
   -2.1463   -2.7980   -0.7846 O   0  0  0  0  0  0  0  0  0  0  0  0
   -1.1072   -3.8372   -0.7363 C   0  0  0  0  0  0  0  0  0  0  0  0
   -0.3018   -4.1912   -2.2648 C   0  0  0  0  0  0  0  0  0  0  0  0
    1.0182   -3.5889   -3.7436 Cl  0  0  0  0  0  0  0  0  0  0  0  0
   -0.4812   -3.8794    0.7293 C   0  0  0  0  0  0  0  0  0  0  0  0
   -1.3576   -3.3496    2.2169 Cl  0  0  0  0  0  0  0  0  0  0  0  0
    0.4622   -0.9305    1.5934 Cl  0  0  0  0  0  0  0  0  0  0  0  0
    0.7919    0.8980    1.7388 H   0  0  0  0  0  0  0  0  0  0  0  0
    2.4932    0.3702    0.9737 H   0  0  0  0  0  0  0  0  0  0  0  0
    0.5918    2.3006   -1.6545 H   0  0  0  0  0  0  0  0  0  0  0  0
    1.4761    0.3757   -3.9398 H   0  0  0  0  0  0  0  0  0  0  0  0
    2.7309   -0.3292   -3.1247 H   0  0  0  0  0  0  0  0  0  0  0  0
    0.5471   -1.3102   -4.0824 H   0  0  0  0  0  0  0  0  0  0  0  0
   -0.3393    1.1136   -4.1276 H   0  0  0  0  0  0  0  0  0  0  0  0
   -1.1210   -0.4187   -4.6146 H   0  0  0  0  0  0  0  0  0  0  0  0
    2.2265    0.4721   -0.9721 H   0  0  0  0  0  0  0  0  0  0  0  0
    0.1034    0.2140   -0.0911 H   0  0  0  0  0  0  0  0  0  0  0  0
   -1.6066   -4.8002   -0.4931 H   0  0  0  0  0  0  0  0  0  0  0  0
    0.4736   -4.9079   -1.9905 H   0  0  0  0  0  0  0  0  0  0  0  0
   -1.0866   -4.1013   -2.9822 H   0  0  0  0  0  0  0  0  0  0  0  0
    0.5733   -4.1449    0.8769 H   0  0  0  0  0  0  0  0  0  0  0  0
   -0.2087   -2.9549    0.7267 H   0  0  0  0  0  0  0  0  0  0  0  0
  1  2  1  0  0  0  0
  1 20  1  0  0  0  0
  1 21  1  0  0  0  0
  1 22  1  0  0  0  0
  2  3  1  0  0  0  0
  2  5  1  0  0  0  0
  2 23  1  0  0  0  0
  3  4  1  0  0  0  0
  3 24  1  0  0  0  0
  3 25  1  0  0  0  0
  5  6  1  0  0  0  0
  6  7  2  0  0  0  0
  6  8  1  0  0  0  0
  6 14  1  0  0  0  0
  8  9  1  0  0  0  0
  9 10  1  0  0  0  0
  9 12  1  0  0  0  0
  9 26  1  0  0  0  0
 10 11  1  0  0  0  0
 10 27  1  0  0  0  0
 10 28  1  0  0  0  0
 12 13  1  0  0  0  0
 12 29  1  0  0  0  0
 12 30  1  0  0  0  0
 14 15  1  0  0  0  0
 15 16  1  0  0  0  0
 15 18  1  0  0  0  0
 15 31  1  0  0  0  0
 16 17  1  0  0  0  0
 16 32  1  0  0  0  0
 16 33  1  0  0  0  0
 18 19  1  0  0  0  0
 18 34  1  0  0  0  0
 18 35  1  0  0  0  0
M  END
$$$$

 OpenBabel05152416213D

 41 43  0  0  1  0  0  0  0  0999 V2000
    1.0125    0.3298   -2.4618 C   0  0  0  0  0  0  0  0  0  0  0  0
    1.6788    0.7618   -1.1407 C   0  0  2  0  0  0  0  0  0  0  0  0
    3.1305    0.2395   -1.1154 C   0  0  0  0  0  0  0  0  0  0  0  0
    3.7800    0.4810    0.2135 C   0  0  0  0  0  0  0  0  0  0  0  0
    4.9924    0.3820    0.3183 O   0  0  0  0  0  0  0  0  0  0  0  0
    2.9713    0.7006    1.4248 C   0  0  0  0  0  0  0  0  0  0  0  0
    1.6169    0.6351    1.4116 C   0  0  0  0  0  0  0  0  0  0  0  0
    0.8758    0.3259    0.1173 C   0  0  2  0  0  0  0  0  0  0  0  0
    0.5754   -1.1274    0.1061 C   0  0  0  0  0  0  0  0  0  0  0  0
    1.4456   -1.9808    0.1042 O   0  0  0  0  0  0  0  0  0  0  0  0
   -0.8751   -1.3033    0.1000 C   0  0  0  0  0  0  0  0  0  0  0  0
   -1.3674   -0.0178    0.1068 C   0  0  0  0  0  0  0  0  0  0  0  0
   -0.3887    0.9123    0.1202 O   0  0  0  0  0  0  0  0  0  0  0  0
   -2.7402    0.2453    0.1037 C   0  0  0  0  0  0  0  0  0  0  0  0
   -3.6394   -0.8388    0.1027 C   0  0  0  0  0  0  0  0  0  0  0  0
   -3.1269   -2.1620    0.0988 C   0  0  0  0  0  0  0  0  0  0  0  0
   -1.7469   -2.4172    0.0927 C   0  0  0  0  0  0  0  0  0  0  0  0
   -1.3593   -3.7207    0.0804 O   0  0  0  0  0  0  0  0  0  0  0  0
   -0.0700   -4.1855    0.0554 C   0  0  0  0  0  0  0  0  0  0  0  0
   -4.9782   -0.5946    0.1058 O   0  0  0  0  0  0  0  0  0  0  0  0
   -5.9569   -1.5698    0.1116 C   0  0  0  0  0  0  0  0  0  0  0  0
   -3.3164    1.9073    0.1039 Cl  0  0  0  0  0  0  0  0  0  0  0  0
    0.8919    0.7486    2.5627 O   0  0  0  0  0  0  0  0  0  0  0  0
    1.4282    0.9535    3.8197 C   0  0  0  0  0  0  0  0  0  0  0  0
    1.5885    0.7236   -3.3253 H   0  0  0  0  0  0  0  0  0  0  0  0
    0.9913   -0.7802   -2.5469 H   0  0  0  0  0  0  0  0  0  0  0  0
   -0.0284    0.7065   -2.5268 H   0  0  0  0  0  0  0  0  0  0  0  0
    1.7222    1.8730   -1.1081 H   0  0  0  0  0  0  0  0  0  0  0  0
    3.6957    0.7747   -1.9070 H   0  0  0  0  0  0  0  0  0  0  0  0
    3.1951   -0.8500   -1.3255 H   0  0  0  0  0  0  0  0  0  0  0  0
    3.5125    0.8602    2.3498 H   0  0  0  0  0  0  0  0  0  0  0  0
   -3.7981   -3.0096    0.0992 H   0  0  0  0  0  0  0  0  0  0  0  0
    0.4234   -3.8362   -0.8786 H   0  0  0  0  0  0  0  0  0  0  0  0
    0.4494   -3.8622    0.9829 H   0  0  0  0  0  0  0  0  0  0  0  0
   -0.0539   -5.2883    0.0438 H   0  0  0  0  0  0  0  0  0  0  0  0
   -5.8639   -2.2062   -0.7951 H   0  0  0  0  0  0  0  0  0  0  0  0
   -5.8615   -2.1982    1.0237 H   0  0  0  0  0  0  0  0  0  0  0  0
   -6.9602   -1.0986    0.1105 H   0  0  0  0  0  0  0  0  0  0  0  0
    2.1024    0.1105    4.0910 H   0  0  0  0  0  0  0  0  0  0  0  0
    1.9972    1.9074    3.8288 H   0  0  0  0  0  0  0  0  0  0  0  0
    0.6180    1.0132    4.5725 H   0  0  0  0  0  0  0  0  0  0  0  0
  1  2  1  0  0  0  0
  1 25  1  0  0  0  0
  1 26  1  0  0  0  0
  1 27  1  0  0  0  0
  2  3  1  0  0  0  0
  2  8  1  0  0  0  0
  2 28  1  1  0  0  0
  3  4  1  0  0  0  0
  3 29  1  0  0  0  0
  3 30  1  0  0  0  0
  4  5  2  0  0  0  0
  4  6  1  0  0  0  0
  6  7  2  0  0  0  0
  6 31  1  0  0  0  0
  7 23  1  0  0  0  0
  8  7  1  1  0  0  0
  8  9  1  0  0  0  0
  8 13  1  0  0  0  0
  9 10  2  0  0  0  0
  9 11  1  0  0  0  0
 11 12  2  0  0  0  0
 11 17  1  0  0  0  0
 12 13  1  0  0  0  0
 12 14  1  0  0  0  0
 14 15  2  0  0  0  0
 14 22  1  0  0  0  0
 15 16  1  0  0  0  0
 15 20  1  0  0  0  0
 16 17  2  0  0  0  0
 16 32  1  0  0  0  0
 17 18  1  0  0  0  0
 18 19  1  0  0  0  0
 19 33  1  0  0  0  0
 19 34  1  0  0  0  0
 19 35  1  0  0  0  0
 20 21  1  0  0  0  0
 21 36  1  0  0  0  0
 21 37  1  0  0  0  0
 21 38  1  0  0  0  0
 23 24  1  0  0  0  0
 24 39  1  0  0  0  0
 24 40  1  0  0  0  0
 24 41  1  0  0  0  0
M  END
$$$$

 OpenBabel05152416213D

 28 29  0  0  0  0  0  0  0  0999 V2000
   -1.9217    0.7175    0.0445 C   0  0  0  0  0  0  0  0  0  0  0  0
   -0.7023    1.3997    0.0336 C   0  0  0  0  0  0  0  0  0  0  0  0
    0.5049    0.6935    0.0186 C   0  0  0  0  0  0  0  0  0  0  0  0
    0.4887   -0.7104    0.0135 C   0  0  0  0  0  0  0  0  0  0  0  0
   -0.7334   -1.3915    0.0205 C   0  0  0  0  0  0  0  0  0  0  0  0
   -1.9548   -0.6896    0.0419 C   0  0  0  0  0  0  0  0  0  0  0  0
   -3.2601   -1.4085   -0.0130 C   0  0  0  0  0  0  0  0  0  0  0  0
   -4.2920   -0.7643   -0.1464 O   0  0  0  0  0  0  0  0  0  0  0  0
   -3.3378   -2.8903   -0.0547 C   0  0  0  0  0  0  0  0  0  0  0  0
   -3.9824   -3.5535   -1.1255 C   0  0  0  0  0  0  0  0  0  0  0  0
   -4.0262   -4.9518   -1.1504 C   0  0  0  0  0  0  0  0  0  0  0  0
   -3.4517   -5.7027   -0.1209 C   0  0  0  0  0  0  0  0  0  0  0  0
   -2.8168   -5.0499    0.9429 C   0  0  0  0  0  0  0  0  0  0  0  0
   -2.7542   -3.6550    0.9730 C   0  0  0  0  0  0  0  0  0  0  0  0
   -3.5151   -7.0485   -0.1659 O   0  0  0  0  0  0  0  0  0  0  0  0
   -4.5278   -2.8791   -2.1627 O   0  0  0  0  0  0  0  0  0  0  0  0
    1.6478   -1.4021   -0.0076 O   0  0  0  0  0  0  0  0  0  0  0  0
    1.6669    1.3781    0.0012 O   0  0  0  0  0  0  0  0  0  0  0  0
   -2.8392    1.2939    0.0411 H   0  0  0  0  0  0  0  0  0  0  0  0
   -0.6955    2.4823    0.0282 H   0  0  0  0  0  0  0  0  0  0  0  0
   -0.7100   -2.4698   -0.0111 H   0  0  0  0  0  0  0  0  0  0  0  0
   -4.5031   -5.4570   -1.9813 H   0  0  0  0  0  0  0  0  0  0  0  0
   -2.3700   -5.6228    1.7460 H   0  0  0  0  0  0  0  0  0  0  0  0
   -2.2619   -3.1690    1.8071 H   0  0  0  0  0  0  0  0  0  0  0  0
   -3.1435   -7.6040    0.5342 H   0  0  0  0  0  0  0  0  0  0  0  0
   -4.4825   -1.9192   -2.2642 H   0  0  0  0  0  0  0  0  0  0  0  0
    1.6698   -2.3701   -0.0069 H   0  0  0  0  0  0  0  0  0  0  0  0
    2.5286    0.9379   -0.0184 H   0  0  0  0  0  0  0  0  0  0  0  0
  1  2  2  0  0  0  0
  1  6  1  0  0  0  0
  1 19  1  0  0  0  0
  2  3  1  0  0  0  0
  2 20  1  0  0  0  0
  3  4  2  0  0  0  0
  3 18  1  0  0  0  0
  4  5  1  0  0  0  0
  4 17  1  0  0  0  0
  5  6  2  0  0  0  0
  5 21  1  0  0  0  0
  6  7  1  0  0  0  0
  7  8  2  0  0  0  0
  7  9  1  0  0  0  0
  9 10  2  0  0  0  0
  9 14  1  0  0  0  0
 10 11  1  0  0  0  0
 10 16  1  0  0  0  0
 11 12  2  0  0  0  0
 11 22  1  0  0  0  0
 12 13  1  0  0  0  0
 12 15  1  0  0  0  0
 13 14  2  0  0  0  0
 13 23  1  0  0  0  0
 14 24  1  0  0  0  0
 15 25  1  0  0  0  0
 16 26  1  0  0  0  0
 17 27  1  0  0  0  0
 18 28  1  0  0  0  0
M  END
$$$$

 OpenBabel05152416213D

 41 42  0  0  0  0  0  0  0  0999 V2000
    0.3045    0.5689   -0.8757 C   0  0  0  0  0  0  0  0  0  0  0  0
    0.2360    0.7725   -2.2368 C   0  0  0  0  0  0  0  0  0  0  0  0
    0.9481   -0.2674   -2.8034 O   0  0  0  0  0  0  0  0  0  0  0  0
    2.2507   -0.6493   -2.6088 C   0  0  0  0  0  0  0  0  0  0  0  0
    2.8550   -0.8249   -3.8537 C   0  0  0  0  0  0  0  0  0  0  0  0
    4.1933   -1.1661   -4.0100 C   0  0  0  0  0  0  0  0  0  0  0  0
    4.9824   -1.2758   -2.8579 C   0  0  0  0  0  0  0  0  0  0  0  0
    4.3821   -1.1735   -1.5745 C   0  0  0  0  0  0  0  0  0  0  0  0
    3.0302   -0.8638   -1.3626 C   0  0  0  0  0  0  0  0  0  0  0  0
    2.6178   -0.7414    0.0686 N   0  0  0  0  0  0  0  0  0  0  0  0
    1.6020   -1.5583    0.7577 C   0  0  0  0  0  0  0  0  0  0  0  0
    0.5180   -0.6738    1.5409 C   0  0  0  0  0  0  0  0  0  0  0  0
    1.0872    0.4327    2.2603 O   0  0  0  0  0  0  0  0  0  0  0  0
    2.0816    1.1943    1.5388 C   0  0  0  0  0  0  0  0  0  0  0  0
    3.2046    0.2944    0.9376 C   0  0  0  0  0  0  0  0  0  0  0  0
    6.3253   -1.4523   -2.9914 O   0  0  0  0  0  0  0  0  0  0  0  0
    7.2385   -1.4246   -1.9543 C   0  0  0  0  0  0  0  0  0  0  0  0
    7.2450   -0.0703   -1.2047 C   0  0  0  0  0  0  0  0  0  0  0  0
    4.6923   -1.4148   -5.3379 N   0  3  0  0  0  0  0  0  0  0  0  0
    3.9628   -1.4118   -6.2649 O   0  0  0  0  0  0  0  0  0  0  0  0
    5.9062   -1.9240   -5.4938 O   0  5  0  0  0  0  0  0  0  0  0  0
    0.0020   -0.5157   -0.8065 H   0  0  0  0  0  0  0  0  0  0  0  0
   -0.2133    1.2936   -0.2328 H   0  0  0  0  0  0  0  0  0  0  0  0
    1.3354    0.7797   -0.7404 H   0  0  0  0  0  0  0  0  0  0  0  0
   -0.8528    0.6872   -2.4153 H   0  0  0  0  0  0  0  0  0  0  0  0
    0.6713    1.7802   -2.4290 H   0  0  0  0  0  0  0  0  0  0  0  0
    2.2437   -0.6615   -4.7358 H   0  0  0  0  0  0  0  0  0  0  0  0
    4.9752   -1.3488   -0.6946 H   0  0  0  0  0  0  0  0  0  0  0  0
    2.1109   -2.1412    1.5595 H   0  0  0  0  0  0  0  0  0  0  0  0
    1.1742   -2.3117    0.0622 H   0  0  0  0  0  0  0  0  0  0  0  0
   -0.4319   -0.3260    1.1018 H   0  0  0  0  0  0  0  0  0  0  0  0
   -0.1721   -1.3122    2.1288 H   0  0  0  0  0  0  0  0  0  0  0  0
    2.5154    1.9371    2.2376 H   0  0  0  0  0  0  0  0  0  0  0  0
    1.6885    1.9446    0.8111 H   0  0  0  0  0  0  0  0  0  0  0  0
    3.7295   -0.1632    1.8037 H   0  0  0  0  0  0  0  0  0  0  0  0
    3.9305    0.9310    0.3818 H   0  0  0  0  0  0  0  0  0  0  0  0
    7.0057   -2.2639   -1.2690 H   0  0  0  0  0  0  0  0  0  0  0  0
    8.2556   -1.5912   -2.3669 H   0  0  0  0  0  0  0  0  0  0  0  0
    6.2777    0.2509   -0.7782 H   0  0  0  0  0  0  0  0  0  0  0  0
    7.9315   -0.1440   -0.3391 H   0  0  0  0  0  0  0  0  0  0  0  0
    7.5455    0.7522   -1.8804 H   0  0  0  0  0  0  0  0  0  0  0  0
  1  2  1  0  0  0  0
  1 22  1  0  0  0  0
  1 23  1  0  0  0  0
  1 24  1  0  0  0  0
  2  3  1  0  0  0  0
  2 25  1  0  0  0  0
  2 26  1  0  0  0  0
  3  4  1  0  0  0  0
  4  5  2  0  0  0  0
  4  9  1  0  0  0  0
  5  6  1  0  0  0  0
  5 27  1  0  0  0  0
  6  7  2  0  0  0  0
  6 19  1  0  0  0  0
  7  8  1  0  0  0  0
  7 16  1  0  0  0  0
  8  9  2  0  0  0  0
  8 28  1  0  0  0  0
  9 10  1  0  0  0  0
 10 11  1  0  0  0  0
 10 15  1  0  0  0  0
 11 12  1  0  0  0  0
 11 29  1  0  0  0  0
 11 30  1  0  0  0  0
 12 13  1  0  0  0  0
 12 31  1  0  0  0  0
 12 32  1  0  0  0  0
 13 14  1  0  0  0  0
 14 15  1  0  0  0  0
 14 33  1  0  0  0  0
 14 34  1  0  0  0  0
 15 35  1  0  0  0  0
 15 36  1  0  0  0  0
 16 17  1  0  0  0  0
 17 18  1  0  0  0  0
 17 37  1  0  0  0  0
 17 38  1  0  0  0  0
 18 39  1  0  0  0  0
 18 40  1  0  0  0  0
 18 41  1  0  0  0  0
 19 20  2  0  0  0  0
 19 21  1  0  0  0  0
M  CHG  2  19   1  21  -1
M  END
$$$$

 OpenBabel05152416213D

  8  6  0  0  0  0  0  0  0  0999 V2000
    0.7163    0.1823   -0.4156 C   0  0  0  0  0  0  0  0  0  0  0  0
    0.3176    0.1518   -1.8449 C   0  0  0  0  0  0  0  0  0  0  0  0
   -0.3364   -0.7856   -2.2822 O   0  0  0  0  0  0  0  0  0  0  0  0
    0.7036    1.1421   -2.6658 O   0  5  0  0  0  0  0  0  0  0  0  0
    2.5468   -0.5861    2.3696 Tl  0  3  0  0  0  0  0  0  0  0  0  0
    0.3298   -0.7120    0.1206 H   0  0  0  0  0  0  0  0  0  0  0  0
    0.3247    1.0969    0.0792 H   0  0  0  0  0  0  0  0  0  0  0  0
    1.8245    0.1949   -0.3852 H   0  0  0  0  0  0  0  0  0  0  0  0
  1  2  1  0  0  0  0
  1  6  1  0  0  0  0
  1  7  1  0  0  0  0
  1  8  1  0  0  0  0
  2  3  2  0  0  0  0
  2  4  1  0  0  0  0
M  CHG  2   4  -1   5   1
M  END
$$$$

 OpenBabel05152416213D

 44 44  0  0  0  0  0  0  0  0999 V2000
    1.0061    0.0105   -0.1932 C   0  0  0  0  0  0  0  0  0  0  0  0
    0.5749   -1.4380   -0.4188 C   0  0  0  0  0  0  0  0  0  0  0  0
    1.0940   -2.3473    0.7124 C   0  0  0  0  0  0  0  0  0  0  0  0
    0.5982   -1.9064    2.1084 C   0  0  0  0  0  0  0  0  0  0  0  0
   -0.9254   -1.8739    2.1996 C   0  0  0  0  0  0  0  0  0  0  0  0
   -1.5367   -3.2609    2.0105 C   0  0  0  0  0  0  0  0  0  0  0  0
   -1.1048   -4.3567    3.0329 C   0  0  0  0  0  0  0  0  0  0  0  0
   -1.4712   -3.8870    4.4441 C   0  0  0  0  0  0  0  0  0  0  0  0
   -1.6215   -5.6376    2.7478 O   0  0  0  0  0  0  0  0  0  0  0  0
   -2.9038   -6.0902    2.9094 C   0  0  0  0  0  0  0  0  0  0  0  0
   -3.7204   -5.4175    3.5209 O   0  0  0  0  0  0  0  0  0  0  0  0
   -3.4170   -7.3736    2.2701 C   0  0  0  0  0  0  0  0  0  0  0  0
   -3.1301   -7.6168    0.9213 O   0  0  0  0  0  0  0  0  0  0  0  0
   -3.3262   -6.9275   -0.2640 C   0  0  0  0  0  0  0  0  0  0  0  0
   -3.3942   -7.6333   -1.4229 N   0  0  0  0  0  0  0  0  0  0  0  0
   -3.6095   -7.0251   -2.6384 C   0  0  0  0  0  0  0  0  0  0  0  0
   -3.6045   -5.6251   -2.7357 C   0  0  0  0  0  0  0  0  0  0  0  0
   -3.4897   -4.8645   -1.5806 C   0  0  0  0  0  0  0  0  0  0  0  0
   -3.4807   -5.5299   -0.3551 C   0  0  0  0  0  0  0  0  0  0  0  0
   -3.9707   -4.5378    0.9252 Cl  0  0  0  0  0  0  0  0  0  0  0  0
   -3.4289   -3.4306   -1.6098 N   0  0  0  0  0  0  0  0  0  0  0  0
   -3.8487   -4.8291   -4.2860 Cl  0  0  0  0  0  0  0  0  0  0  0  0
   -3.8434   -7.7757   -3.7396 F   0  0  0  0  0  0  0  0  0  0  0  0
    0.5734    0.4260    0.7400 H   0  0  0  0  0  0  0  0  0  0  0  0
    0.6478    0.6519   -1.0188 H   0  0  0  0  0  0  0  0  0  0  0  0
    2.1136    0.0514   -0.1282 H   0  0  0  0  0  0  0  0  0  0  0  0
   -0.5317   -1.4918   -0.5092 H   0  0  0  0  0  0  0  0  0  0  0  0
    0.9780   -1.7975   -1.3875 H   0  0  0  0  0  0  0  0  0  0  0  0
    0.7963   -3.3963    0.4966 H   0  0  0  0  0  0  0  0  0  0  0  0
    2.2025   -2.3365    0.7159 H   0  0  0  0  0  0  0  0  0  0  0  0
    1.0108   -2.5716    2.8897 H   0  0  0  0  0  0  0  0  0  0  0  0
    0.9818   -0.9022    2.3649 H   0  0  0  0  0  0  0  0  0  0  0  0
   -1.2482   -1.4408    3.1652 H   0  0  0  0  0  0  0  0  0  0  0  0
   -1.3615   -1.1820    1.4455 H   0  0  0  0  0  0  0  0  0  0  0  0
   -2.5966   -3.0231    2.1440 H   0  0  0  0  0  0  0  0  0  0  0  0
   -1.3258   -3.6117    0.9750 H   0  0  0  0  0  0  0  0  0  0  0  0
   -0.0053   -4.4739    2.9609 H   0  0  0  0  0  0  0  0  0  0  0  0
   -2.5599   -3.6893    4.5121 H   0  0  0  0  0  0  0  0  0  0  0  0
   -1.1645   -4.6416    5.1867 H   0  0  0  0  0  0  0  0  0  0  0  0
   -0.9756   -2.9296    4.6913 H   0  0  0  0  0  0  0  0  0  0  0  0
   -3.0151   -8.2144    2.8763 H   0  0  0  0  0  0  0  0  0  0  0  0
   -4.5217   -7.3986    2.3883 H   0  0  0  0  0  0  0  0  0  0  0  0
   -3.4681   -2.8926   -2.4817 H   0  0  0  0  0  0  0  0  0  0  0  0
   -3.1680   -2.8812   -0.7736 H   0  0  0  0  0  0  0  0  0  0  0  0
  1  2  1  0  0  0  0
  1 24  1  0  0  0  0
  1 25  1  0  0  0  0
  1 26  1  0  0  0  0
  2  3  1  0  0  0  0
  2 27  1  0  0  0  0
  2 28  1  0  0  0  0
  3  4  1  0  0  0  0
  3 29  1  0  0  0  0
  3 30  1  0  0  0  0
  4  5  1  0  0  0  0
  4 31  1  0  0  0  0
  4 32  1  0  0  0  0
  5  6  1  0  0  0  0
  5 33  1  0  0  0  0
  5 34  1  0  0  0  0
  6  7  1  0  0  0  0
  6 35  1  0  0  0  0
  6 36  1  0  0  0  0
  7  8  1  0  0  0  0
  7  9  1  0  0  0  0
  7 37  1  0  0  0  0
  8 38  1  0  0  0  0
  8 39  1  0  0  0  0
  8 40  1  0  0  0  0
  9 10  1  0  0  0  0
 10 11  2  0  0  0  0
 10 12  1  0  0  0  0
 12 13  1  0  0  0  0
 12 41  1  0  0  0  0
 12 42  1  0  0  0  0
 13 14  1  0  0  0  0
 14 15  2  0  0  0  0
 14 19  1  0  0  0  0
 15 16  1  0  0  0  0
 16 17  2  0  0  0  0
 16 23  1  0  0  0  0
 17 18  1  0  0  0  0
 17 22  1  0  0  0  0
 18 19  2  0  0  0  0
 18 21  1  0  0  0  0
 19 20  1  0  0  0  0
 21 43  1  0  0  0  0
 21 44  1  0  0  0  0
M  END
$$$$

 OpenBabel05152416213D

 17 17  0  0  0  0  0  0  0  0999 V2000
    2.5292   -0.1202   -0.0112 C   0  0  0  0  0  0  0  0  0  0  0  0
    1.0254    0.0385   -0.0016 C   0  0  0  0  0  0  0  0  0  0  0  0
    0.2967   -1.1730   -0.0005 C   0  0  0  0  0  0  0  0  0  0  0  0
   -1.0966   -1.1816   -0.0019 C   0  0  0  0  0  0  0  0  0  0  0  0
   -1.7947    0.0171   -0.0042 C   0  0  0  0  0  0  0  0  0  0  0  0
   -1.1058    1.2277   -0.0013 C   0  0  0  0  0  0  0  0  0  0  0  0
    0.3089    1.2846    0.0007 C   0  0  0  0  0  0  0  0  0  0  0  0
    0.9226    2.5916    0.0007 N   0  3  0  0  0  0  0  0  0  0  0  0
    0.2385    3.5682   -0.0047 O   0  0  0  0  0  0  0  0  0  0  0  0
    2.2243    2.7620    0.0078 O   0  5  0  0  0  0  0  0  0  0  0  0
    2.8467   -0.6898    0.8866 H   0  0  0  0  0  0  0  0  0  0  0  0
    2.8287   -0.6674   -0.9291 H   0  0  0  0  0  0  0  0  0  0  0  0
    3.1310    0.7883   -0.0067 H   0  0  0  0  0  0  0  0  0  0  0  0
    0.8121   -2.1277   -0.0001 H   0  0  0  0  0  0  0  0  0  0  0  0
   -1.6386   -2.1206   -0.0029 H   0  0  0  0  0  0  0  0  0  0  0  0
   -2.8775    0.0126   -0.0085 H   0  0  0  0  0  0  0  0  0  0  0  0
   -1.6921    2.1362   -0.0022 H   0  0  0  0  0  0  0  0  0  0  0  0
  1  2  1  0  0  0  0
  1 11  1  0  0  0  0
  1 12  1  0  0  0  0
  1 13  1  0  0  0  0
  2  3  2  0  0  0  0
  2  7  1  0  0  0  0
  3  4  1  0  0  0  0
  3 14  1  0  0  0  0
  4  5  2  0  0  0  0
  4 15  1  0  0  0  0
  5  6  1  0  0  0  0
  5 16  1  0  0  0  0
  6  7  2  0  0  0  0
  6 17  1  0  0  0  0
  7  8  1  0  0  0  0
  8  9  2  0  0  0  0
  8 10  1  0  0  0  0
M  CHG  2   8   1  10  -1
M  END
$$$$

 OpenBabel05152416213D

 44 47  0  0  1  0  0  0  0  0999 V2000
   -2.5536    0.7800   -1.6747 C   0  0  0  0  0  0  0  0  0  0  0  0
   -2.6441    0.5414   -0.1319 C   0  0  2  0  0  0  0  0  0  0  0  0
   -1.9710    1.7023    0.6311 C   0  0  0  0  0  0  0  0  0  0  0  0
   -0.4521    1.7187    0.3676 C   0  0  0  0  0  0  0  0  0  0  0  0
    0.2216    0.3510    0.6983 C   0  0  1  0  0  0  0  0  0  0  0  0
   -0.5017   -0.8442   -0.0073 C   0  0  2  0  0  0  0  0  0  0  0  0
   -2.0036   -0.7756    0.3522 C   0  0  2  0  0  0  0  0  0  0  0  0
   -2.9489   -1.8460   -0.1925 C   0  0  0  0  0  0  0  0  0  0  0  0
   -4.3550   -1.2089   -0.0618 C   0  0  0  0  0  0  0  0  0  0  0  0
   -4.0997    0.2784    0.2869 C   0  0  2  0  0  0  0  0  0  0  0  0
   -5.0525    1.1771   -0.2266 O   0  0  0  0  0  0  0  0  0  0  0  0
    0.1517   -2.1412    0.4823 C   0  0  0  0  0  0  0  0  0  0  0  0
    1.6146   -2.2203    0.0193 C   0  0  0  0  0  0  0  0  0  0  0  0
    2.3627   -0.9032    0.0788 C   0  0  0  0  0  0  0  0  0  0  0  0
    1.7191    0.3237    0.3923 C   0  0  0  0  0  0  0  0  0  0  0  0
    2.4873    1.5080    0.3933 C   0  0  0  0  0  0  0  0  0  0  0  0
    3.8425    1.4850    0.0783 C   0  0  0  0  0  0  0  0  0  0  0  0
    4.4687    0.2819   -0.2435 C   0  0  0  0  0  0  0  0  0  0  0  0
    3.7333   -0.9058   -0.2438 C   0  0  0  0  0  0  0  0  0  0  0  0
    5.7809    0.2612   -0.5589 O   0  0  0  0  0  0  0  0  0  0  0  0
   -3.0150   -0.0374   -2.2605 H   0  0  0  0  0  0  0  0  0  0  0  0
   -3.0812    1.7198   -1.9410 H   0  0  0  0  0  0  0  0  0  0  0  0
   -1.5173    0.8892   -2.0412 H   0  0  0  0  0  0  0  0  0  0  0  0
   -2.1187    1.5592    1.7258 H   0  0  0  0  0  0  0  0  0  0  0  0
   -2.4231    2.6791    0.3560 H   0  0  0  0  0  0  0  0  0  0  0  0
   -0.0323    2.5218    1.0066 H   0  0  0  0  0  0  0  0  0  0  0  0
   -0.2464    1.9858   -0.6872 H   0  0  0  0  0  0  0  0  0  0  0  0
    0.1122    0.2061    1.7969 H   0  0  0  0  0  0  0  0  0  0  0  0
   -0.3856   -0.7893   -1.1118 H   0  0  0  0  0  0  0  0  0  0  0  0
   -2.0924   -0.8300    1.4653 H   0  0  0  0  0  0  0  0  0  0  0  0
   -2.7276   -1.9806   -1.2724 H   0  0  0  0  0  0  0  0  0  0  0  0
   -2.8555   -2.8420    0.2899 H   0  0  0  0  0  0  0  0  0  0  0  0
   -4.8846   -1.3464   -1.0292 H   0  0  0  0  0  0  0  0  0  0  0  0
   -4.9619   -1.6621    0.7523 H   0  0  0  0  0  0  0  0  0  0  0  0
   -4.1328    0.3412    1.3994 H   0  0  0  0  0  0  0  0  0  0  0  0
   -5.1488    0.9955   -1.1978 H   0  0  0  0  0  0  0  0  0  0  0  0
   -0.3801   -3.0454    0.1135 H   0  0  0  0  0  0  0  0  0  0  0  0
    0.1078   -2.1517    1.5933 H   0  0  0  0  0  0  0  0  0  0  0  0
    1.6410   -2.5475   -1.0427 H   0  0  0  0  0  0  0  0  0  0  0  0
    2.1233   -2.9959    0.6332 H   0  0  0  0  0  0  0  0  0  0  0  0
    2.0619    2.4700    0.6242 H   0  0  0  0  0  0  0  0  0  0  0  0
    4.4010    2.4121    0.0791 H   0  0  0  0  0  0  0  0  0  0  0  0
    4.2275   -1.8351   -0.5006 H   0  0  0  0  0  0  0  0  0  0  0  0
    6.3127    1.0699   -0.5718 H   0  0  0  0  0  0  0  0  0  0  0  0
  1 21  1  0  0  0  0
  1 22  1  0  0  0  0
  1 23  1  0  0  0  0
  2  1  1  6  0  0  0
  2  3  1  0  0  0  0
  2  7  1  0  0  0  0
  2 10  1  0  0  0  0
  3  4  1  0  0  0  0
  3 24  1  0  0  0  0
  3 25  1  0  0  0  0
  4  5  1  0  0  0  0
  4 26  1  0  0  0  0
  4 27  1  0  0  0  0
  5  6  1  0  0  0  0
  5 15  1  0  0  0  0
  5 28  1  1  0  0  0
  6  7  1  0  0  0  0
  6 12  1  0  0  0  0
  6 29  1  6  0  0  0
  7  8  1  0  0  0  0
  7 30  1  1  0  0  0
  8  9  1  0  0  0  0
  8 31  1  0  0  0  0
  8 32  1  0  0  0  0
  9 10  1  0  0  0  0
  9 33  1  0  0  0  0
  9 34  1  0  0  0  0
 10 11  1  0  0  0  0
 10 35  1  1  0  0  0
 11 36  1  0  0  0  0
 12 13  1  0  0  0  0
 12 37  1  0  0  0  0
 12 38  1  0  0  0  0
 13 14  1  0  0  0  0
 13 39  1  0  0  0  0
 13 40  1  0  0  0  0
 14 15  2  0  0  0  0
 14 19  1  0  0  0  0
 15 16  1  0  0  0  0
 16 17  2  0  0  0  0
 16 41  1  0  0  0  0
 17 18  1  0  0  0  0
 17 42  1  0  0  0  0
 18 19  2  0  0  0  0
 18 20  1  0  0  0  0
 19 43  1  0  0  0  0
 20 44  1  0  0  0  0
M  END
$$$$

 OpenBabel05152416213D

 39 40  0  0  1  0  0  0  0  0999 V2000
    0.8499   -0.1202    0.1069 C   0  0  0  0  0  0  0  0  0  0  0  0
    0.5260   -0.0298   -1.4079 C   0  0  2  0  0  0  0  0  0  0  0  0
    1.1298   -1.2413   -2.1014 C   0  0  0  0  0  0  0  0  0  0  0  0
    0.9480   -1.1417   -3.6143 C   0  0  0  0  0  0  0  0  0  0  0  0
    1.3266    0.2242   -4.2071 C   0  0  0  0  0  0  0  0  0  0  0  0
    1.1720    1.3828   -3.5338 C   0  0  0  0  0  0  0  0  0  0  0  0
    1.0565    1.3413   -2.0128 C   0  0  1  0  0  0  0  0  0  0  0  0
    0.1092    2.4251   -1.4908 C   0  0  0  0  0  0  0  0  0  0  0  0
    0.4809    3.8468   -1.9059 C   0  0  1  0  0  0  0  0  0  0  0  0
    0.6316    3.9065   -3.4698 C   0  0  0  0  0  0  0  0  0  0  0  0
    1.5338    2.7888   -4.1103 C   0  0  0  0  0  0  0  0  0  0  0  0
   -0.5193    4.8538   -1.3038 C   0  0  0  0  0  0  0  0  0  0  0  0
   -1.5306    4.5202   -0.4514 C   0  0  0  0  0  0  0  0  0  0  0  0
   -0.3332    6.3017   -1.6357 C   0  0  0  0  0  0  0  0  0  0  0  0
    2.5338    1.6453   -1.6355 C   0  0  0  0  0  0  0  0  0  0  0  0
    0.4945   -1.0685    0.5534 H   0  0  0  0  0  0  0  0  0  0  0  0
    0.4163    0.6946    0.7137 H   0  0  0  0  0  0  0  0  0  0  0  0
    1.9504   -0.0786    0.2390 H   0  0  0  0  0  0  0  0  0  0  0  0
   -0.5850   -0.0977   -1.5579 H   0  0  0  0  0  0  0  0  0  0  0  0
    0.6183   -2.1697   -1.7298 H   0  0  0  0  0  0  0  0  0  0  0  0
    2.2027   -1.3187   -1.8524 H   0  0  0  0  0  0  0  0  0  0  0  0
    1.4724   -1.9859   -4.1100 H   0  0  0  0  0  0  0  0  0  0  0  0
   -0.1342   -1.2677   -3.8304 H   0  0  0  0  0  0  0  0  0  0  0  0
    1.7323    0.2200   -5.2184 H   0  0  0  0  0  0  0  0  0  0  0  0
    0.1392    2.4260   -0.3876 H   0  0  0  0  0  0  0  0  0  0  0  0
   -0.9330    2.2065   -1.8282 H   0  0  0  0  0  0  0  0  0  0  0  0
    1.4553    4.1074   -1.4451 H   0  0  0  0  0  0  0  0  0  0  0  0
    1.0616    4.9013   -3.7351 H   0  0  0  0  0  0  0  0  0  0  0  0
   -0.3751    3.8232   -3.9162 H   0  0  0  0  0  0  0  0  0  0  0  0
    2.5964    3.0293   -3.9171 H   0  0  0  0  0  0  0  0  0  0  0  0
    1.5495    2.8232   -5.2195 H   0  0  0  0  0  0  0  0  0  0  0  0
   -2.1931    5.2686   -0.0306 H   0  0  0  0  0  0  0  0  0  0  0  0
   -1.7373    3.5094   -0.1117 H   0  0  0  0  0  0  0  0  0  0  0  0
    0.6717    6.6205   -1.2921 H   0  0  0  0  0  0  0  0  0  0  0  0
   -0.4195    6.4304   -2.7313 H   0  0  0  0  0  0  0  0  0  0  0  0
   -1.0985    6.9432   -1.1495 H   0  0  0  0  0  0  0  0  0  0  0  0
    2.7389    1.8749   -0.5861 H   0  0  0  0  0  0  0  0  0  0  0  0
    3.2376    0.9583   -2.1719 H   0  0  0  0  0  0  0  0  0  0  0  0
    2.8379    2.6202   -1.9936 H   0  0  0  0  0  0  0  0  0  0  0  0
  1  2  1  0  0  0  0
  1 16  1  0  0  0  0
  1 17  1  0  0  0  0
  1 18  1  0  0  0  0
  2  3  1  0  0  0  0
  2  7  1  0  0  0  0
  2 19  1  6  0  0  0
  3  4  1  0  0  0  0
  3 20  1  0  0  0  0
  3 21  1  0  0  0  0
  4  5  1  0  0  0  0
  4 22  1  0  0  0  0
  4 23  1  0  0  0  0
  5  6  2  0  0  0  0
  5 24  1  0  0  0  0
  6  7  1  0  0  0  0
  6 11  1  0  0  0  0
  7  8  1  0  0  0  0
  7 15  1  1  0  0  0
  8  9  1  0  0  0  0
  8 25  1  0  0  0  0
  8 26  1  0  0  0  0
  9 10  1  0  0  0  0
  9 27  1  1  0  0  0
  9 12  1  0  0  0  0
 10 11  1  0  0  0  0
 10 28  1  0  0  0  0
 10 29  1  0  0  0  0
 11 30  1  0  0  0  0
 11 31  1  0  0  0  0
 12 13  2  0  0  0  0
 12 14  1  0  0  0  0
 13 32  1  0  0  0  0
 13 33  1  0  0  0  0
 14 34  1  0  0  0  0
 14 35  1  0  0  0  0
 14 36  1  0  0  0  0
 15 37  1  0  0  0  0
 15 38  1  0  0  0  0
 15 39  1  0  0  0  0
M  END
$$$$

 OpenBabel05152416213D

 36 37  0  0  0  0  0  0  0  0999 V2000
    1.4009   -0.1219    0.3076 C   0  0  0  0  0  0  0  0  0  0  0  0
    0.7312    0.6295   -0.8189 C   0  0  0  0  0  0  0  0  0  0  0  0
    1.2072   -0.2985   -2.0831 C   0  0  0  0  0  0  0  0  0  0  0  0
   -0.7810    0.6565   -0.2643 C   0  0  0  0  0  0  0  0  0  0  0  0
    1.0869    2.1420   -1.0871 C   0  0  0  0  0  0  0  0  0  0  0  0
    1.7953    2.6735   -0.2391 O   0  0  0  0  0  0  0  0  0  0  0  0
    0.5954    3.0832   -2.3128 C   0  0  0  0  0  0  0  0  0  0  0  0
    1.2310    2.7481   -3.5979 N   0  0  0  0  0  0  0  0  0  0  0  0
    1.7830    3.5702   -4.5312 C   0  0  0  0  0  0  0  0  0  0  0  0
    2.0755    2.8537   -5.6455 N   0  0  0  0  0  0  0  0  0  0  0  0
    1.6716    1.6082   -5.3416 C   0  0  0  0  0  0  0  0  0  0  0  0
    1.1464    1.5806   -4.1198 N   0  0  0  0  0  0  0  0  0  0  0  0
   -0.7974    3.2009   -2.6157 O   0  0  0  0  0  0  0  0  0  0  0  0
   -1.7066    2.2409   -3.0725 C   0  0  0  0  0  0  0  0  0  0  0  0
   -1.4704    0.9419   -2.8554 C   0  0  0  0  0  0  0  0  0  0  0  0
   -2.2940   -0.1378   -2.9347 C   0  0  0  0  0  0  0  0  0  0  0  0
   -3.4949    0.0745   -3.5241 C   0  0  0  0  0  0  0  0  0  0  0  0
   -3.7926    1.3828   -3.9887 C   0  0  0  0  0  0  0  0  0  0  0  0
   -2.9075    2.4832   -3.7151 C   0  0  0  0  0  0  0  0  0  0  0  0
   -4.5327   -1.3244   -3.6922 Cl  0  0  0  0  0  0  0  0  0  0  0  0
    0.9731   -1.1655    0.2533 H   0  0  0  0  0  0  0  0  0  0  0  0
    1.1366    0.2966    1.2936 H   0  0  0  0  0  0  0  0  0  0  0  0
    2.4903   -0.1815    0.1502 H   0  0  0  0  0  0  0  0  0  0  0  0
    0.9420   -1.3613   -1.9953 H   0  0  0  0  0  0  0  0  0  0  0  0
    0.7714   -0.3012   -3.0915 H   0  0  0  0  0  0  0  0  0  0  0  0
    2.2809   -0.1089   -2.3298 H   0  0  0  0  0  0  0  0  0  0  0  0
   -1.1983    1.4198    0.4247 H   0  0  0  0  0  0  0  0  0  0  0  0
   -1.3979    1.4480   -0.6732 H   0  0  0  0  0  0  0  0  0  0  0  0
   -1.2945   -0.3322   -0.2910 H   0  0  0  0  0  0  0  0  0  0  0  0
    0.9517    4.1059   -2.0341 H   0  0  0  0  0  0  0  0  0  0  0  0
    1.9102    4.6354   -4.4567 H   0  0  0  0  0  0  0  0  0  0  0  0
    1.7121    0.7266   -5.9588 H   0  0  0  0  0  0  0  0  0  0  0  0
   -0.6295    0.8660   -2.5174 H   0  0  0  0  0  0  0  0  0  0  0  0
   -1.9761   -1.1058   -2.5263 H   0  0  0  0  0  0  0  0  0  0  0  0
   -4.7011    1.5350   -4.5209 H   0  0  0  0  0  0  0  0  0  0  0  0
   -3.1192    3.4939   -4.0025 H   0  0  0  0  0  0  0  0  0  0  0  0
  1  2  1  0  0  0  0
  1 21  1  0  0  0  0
  1 22  1  0  0  0  0
  1 23  1  0  0  0  0
  2  3  1  0  0  0  0
  2  4  1  0  0  0  0
  2  5  1  0  0  0  0
  3 24  1  0  0  0  0
  3 25  1  0  0  0  0
  3 26  1  0  0  0  0
  4 27  1  0  0  0  0
  4 28  1  0  0  0  0
  4 29  1  0  0  0  0
  5  6  2  0  0  0  0
  5  7  1  0  0  0  0
  7  8  1  0  0  0  0
  7 13  1  0  0  0  0
  7 30  1  0  0  0  0
  8  9  1  0  0  0  0
  8 12  1  0  0  0  0
  9 10  2  0  0  0  0
  9 31  1  0  0  0  0
 10 11  1  0  0  0  0
 11 12  2  0  0  0  0
 11 32  1  0  0  0  0
 13 14  1  0  0  0  0
 14 15  2  0  0  0  0
 14 19  1  0  0  0  0
 15 16  1  0  0  0  0
 15 33  1  0  0  0  0
 16 17  2  0  0  0  0
 16 34  1  0  0  0  0
 17 18  1  0  0  0  0
 17 20  1  0  0  0  0
 18 19  2  0  0  0  0
 18 35  1  0  0  0  0
 19 36  1  0  0  0  0
M  END
$$$$

 OpenBabel05152416213D

 39 39  0  0  0  0  0  0  0  0999 V2000
    0.8325   -0.1102   -0.0040 C   0  0  0  0  0  0  0  0  0  0  0  0
    0.4013    1.2937   -0.4386 C   0  0  0  0  0  0  0  0  0  0  0  0
    0.9064    1.6839   -1.7510 N   0  0  0  0  0  0  0  0  0  0  0  0
   -0.0212    2.0147   -2.8380 C   0  0  0  0  0  0  0  0  0  0  0  0
    0.1032    3.4513   -3.3575 C   0  0  0  0  0  0  0  0  0  0  0  0
    2.3218    1.8169   -1.9038 C   0  0  0  0  0  0  0  0  0  0  0  0
    2.8235    2.8801   -2.5604 N   0  0  0  0  0  0  0  0  0  0  0  0
    4.1517    3.1227   -2.6064 C   0  0  0  0  0  0  0  0  0  0  0  0
    5.0335    2.2515   -1.9474 C   0  0  0  0  0  0  0  0  0  0  0  0
    4.5013    1.0149   -1.4331 C   0  0  0  0  0  0  0  0  0  0  0  0
    3.1545    0.8869   -1.3874 N   0  0  0  0  0  0  0  0  0  0  0  0
    5.2663   -0.1290   -1.2623 O   0  0  0  0  0  0  0  0  0  0  0  0
    6.9757   -0.0142   -1.5023 P   0  0  0  0  0  0  0  0  0  0  0  0
    7.0093   -1.7658   -1.8055 S   0  0  0  0  0  0  0  0  0  0  0  0
    6.8297    0.4216   -3.2435 O   0  0  0  0  0  0  0  0  0  0  0  0
    5.5923    0.2235   -3.9433 C   0  0  0  0  0  0  0  0  0  0  0  0
    8.6851    0.1006   -1.7423 O   0  0  0  0  0  0  0  0  0  0  0  0
    9.3439   -0.2284   -0.5383 C   0  0  0  0  0  0  0  0  0  0  0  0
    4.6154    4.2362   -3.4994 C   0  0  0  0  0  0  0  0  0  0  0  0
    0.5121   -0.8513   -0.7635 H   0  0  0  0  0  0  0  0  0  0  0  0
    0.3815   -0.3412    0.9791 H   0  0  0  0  0  0  0  0  0  0  0  0
    1.9172   -0.2100    0.1705 H   0  0  0  0  0  0  0  0  0  0  0  0
   -0.7069    1.3205   -0.4250 H   0  0  0  0  0  0  0  0  0  0  0  0
    0.7592    2.0368    0.3088 H   0  0  0  0  0  0  0  0  0  0  0  0
    0.1339    1.3120   -3.6864 H   0  0  0  0  0  0  0  0  0  0  0  0
   -1.0720    1.8845   -2.4993 H   0  0  0  0  0  0  0  0  0  0  0  0
    1.0622    3.6314   -3.8769 H   0  0  0  0  0  0  0  0  0  0  0  0
   -0.6740    3.6377   -4.1265 H   0  0  0  0  0  0  0  0  0  0  0  0
   -0.0193    4.1704   -2.5222 H   0  0  0  0  0  0  0  0  0  0  0  0
    6.0932    2.4485   -2.0550 H   0  0  0  0  0  0  0  0  0  0  0  0
    5.0997   -0.7522   -3.7651 H   0  0  0  0  0  0  0  0  0  0  0  0
    4.7098    0.7630   -3.6724 H   0  0  0  0  0  0  0  0  0  0  0  0
    5.5368    0.9875   -4.7509 H   0  0  0  0  0  0  0  0  0  0  0  0
    9.0634    0.4621    0.2844 H   0  0  0  0  0  0  0  0  0  0  0  0
    9.1718   -1.2888   -0.2485 H   0  0  0  0  0  0  0  0  0  0  0  0
   10.4372   -0.1399   -0.7040 H   0  0  0  0  0  0  0  0  0  0  0  0
    4.1796    4.0857   -4.5186 H   0  0  0  0  0  0  0  0  0  0  0  0
    4.2586    5.2101   -3.1171 H   0  0  0  0  0  0  0  0  0  0  0  0
    5.7178    4.2394   -3.6247 H   0  0  0  0  0  0  0  0  0  0  0  0
  1  2  1  0  0  0  0
  1 20  1  0  0  0  0
  1 21  1  0  0  0  0
  1 22  1  0  0  0  0
  2  3  1  0  0  0  0
  2 23  1  0  0  0  0
  2 24  1  0  0  0  0
  3  4  1  0  0  0  0
  3  6  1  0  0  0  0
  4  5  1  0  0  0  0
  4 25  1  0  0  0  0
  4 26  1  0  0  0  0
  5 27  1  0  0  0  0
  5 28  1  0  0  0  0
  5 29  1  0  0  0  0
  6  7  2  0  0  0  0
  6 11  1  0  0  0  0
  7  8  1  0  0  0  0
  8  9  2  0  0  0  0
  8 19  1  0  0  0  0
  9 10  1  0  0  0  0
  9 30  1  0  0  0  0
 10 11  2  0  0  0  0
 10 12  1  0  0  0  0
 12 13  1  0  0  0  0
 13 14  2  0  0  0  0
 13 15  1  0  0  0  0
 13 17  1  0  0  0  0
 15 16  1  0  0  0  0
 16 31  1  0  0  0  0
 16 32  1  0  0  0  0
 16 33  1  0  0  0  0
 17 18  1  0  0  0  0
 18 34  1  0  0  0  0
 18 35  1  0  0  0  0
 18 36  1  0  0  0  0
 19 37  1  0  0  0  0
 19 38  1  0  0  0  0
 19 39  1  0  0  0  0
M  END
$$$$

 OpenBabel05152416213D

 35 36  0  0  0  0  0  0  0  0999 V2000
    0.9798   -0.0386   -0.0461 C   0  0  0  0  0  0  0  0  0  0  0  0
    0.4644    0.0926    1.3134 N   0  0  0  0  0  0  0  0  0  0  0  0
   -0.1981    1.3699    1.5918 C   0  0  0  0  0  0  0  0  0  0  0  0
    0.7141   -0.9298    2.2420 C   0  0  0  0  0  0  0  0  0  0  0  0
    1.4108   -1.8723    1.8711 O   0  0  0  0  0  0  0  0  0  0  0  0
    0.3115   -0.9572    3.5706 N   0  0  0  0  0  0  0  0  0  0  0  0
   -0.6127   -0.0699    4.1897 C   0  0  0  0  0  0  0  0  0  0  0  0
   -0.3591    0.5211    5.4413 C   0  0  0  0  0  0  0  0  0  0  0  0
   -1.2317    1.5139    5.9326 C   0  0  0  0  0  0  0  0  0  0  0  0
   -2.3221    1.9433    5.1517 C   0  0  0  0  0  0  0  0  0  0  0  0
   -2.5872    1.2692    3.9492 C   0  0  0  0  0  0  0  0  0  0  0  0
   -1.7859    0.2331    3.5272 C   0  0  0  0  0  0  0  0  0  0  0  0
   -3.0519    3.0280    5.5401 O   0  0  0  0  0  0  0  0  0  0  0  0
   -4.1073    3.5506    4.8558 C   0  0  0  0  0  0  0  0  0  0  0  0
   -4.1167    4.9203    4.5566 C   0  0  0  0  0  0  0  0  0  0  0  0
   -5.1667    5.4745    3.8147 C   0  0  0  0  0  0  0  0  0  0  0  0
   -6.2093    4.6614    3.3576 C   0  0  0  0  0  0  0  0  0  0  0  0
   -6.2136    3.2976    3.6611 C   0  0  0  0  0  0  0  0  0  0  0  0
   -5.1778    2.7473    4.4173 C   0  0  0  0  0  0  0  0  0  0  0  0
   -7.5046    5.3488    2.3956 Cl  0  0  0  0  0  0  0  0  0  0  0  0
    0.6870    0.8175   -0.6942 H   0  0  0  0  0  0  0  0  0  0  0  0
    0.5601   -0.9438   -0.5307 H   0  0  0  0  0  0  0  0  0  0  0  0
    2.0880   -0.0738   -0.0378 H   0  0  0  0  0  0  0  0  0  0  0  0
   -1.2885    1.2875    1.4858 H   0  0  0  0  0  0  0  0  0  0  0  0
    0.1980    1.8381    2.5182 H   0  0  0  0  0  0  0  0  0  0  0  0
   -0.0722    2.1135    0.7851 H   0  0  0  0  0  0  0  0  0  0  0  0
    0.7210   -1.6783    4.1850 H   0  0  0  0  0  0  0  0  0  0  0  0
    0.5323    0.2651    6.0017 H   0  0  0  0  0  0  0  0  0  0  0  0
   -1.0219    1.9928    6.8813 H   0  0  0  0  0  0  0  0  0  0  0  0
   -3.3793    1.5491    3.2794 H   0  0  0  0  0  0  0  0  0  0  0  0
   -2.0249   -0.2838    2.6073 H   0  0  0  0  0  0  0  0  0  0  0  0
   -3.2976    5.5524    4.8766 H   0  0  0  0  0  0  0  0  0  0  0  0
   -5.1640    6.5317    3.5826 H   0  0  0  0  0  0  0  0  0  0  0  0
   -7.0133    2.6600    3.3068 H   0  0  0  0  0  0  0  0  0  0  0  0
   -5.1952    1.6882    4.6420 H   0  0  0  0  0  0  0  0  0  0  0  0
  1  2  1  0  0  0  0
  1 21  1  0  0  0  0
  1 22  1  0  0  0  0
  1 23  1  0  0  0  0
  2  3  1  0  0  0  0
  2  4  1  0  0  0  0
  3 24  1  0  0  0  0
  3 25  1  0  0  0  0
  3 26  1  0  0  0  0
  4  5  2  0  0  0  0
  4  6  1  0  0  0  0
  6  7  1  0  0  0  0
  6 27  1  0  0  0  0
  7  8  2  0  0  0  0
  7 12  1  0  0  0  0
  8  9  1  0  0  0  0
  8 28  1  0  0  0  0
  9 10  2  0  0  0  0
  9 29  1  0  0  0  0
 10 11  1  0  0  0  0
 10 13  1  0  0  0  0
 11 12  2  0  0  0  0
 11 30  1  0  0  0  0
 12 31  1  0  0  0  0
 13 14  1  0  0  0  0
 14 15  2  0  0  0  0
 14 19  1  0  0  0  0
 15 16  1  0  0  0  0
 15 32  1  0  0  0  0
 16 17  2  0  0  0  0
 16 33  1  0  0  0  0
 17 18  1  0  0  0  0
 17 20  1  0  0  0  0
 18 19  2  0  0  0  0
 18 34  1  0  0  0  0
 19 35  1  0  0  0  0
M  END
$$$$

 OpenBabel05152416213D

 92 97  0  0  1  0  0  0  0  0999 V2000
   -6.6170   -7.3768   -0.2774 C   0  0  0  0  0  0  0  0  0  0  0  0
   -5.1671   -7.0251   -0.6316 C   0  0  0  0  0  0  0  0  0  0  0  0
   -4.8643   -7.3482   -2.0845 C   0  0  0  0  0  0  0  0  0  0  0  0
   -4.9194   -5.5690   -0.3745 C   0  0  0  0  0  0  0  0  0  0  0  0
   -5.0262   -5.2931    1.1970 C   0  0  1  0  0  0  0  0  0  0  0  0
   -4.1077   -5.9560    2.1107 C   0  0  0  0  0  0  0  0  0  0  0  0
   -4.2173   -7.1586    2.3359 O   0  0  0  0  0  0  0  0  0  0  0  0
   -3.1815   -5.1761    2.7668 N   0  0  0  0  0  0  0  0  0  0  0  0
   -2.1524   -5.6967    3.5640 C   0  0  0  0  0  0  0  0  0  0  0  0
   -0.9935   -4.7467    3.3105 C   0  0  0  0  0  0  0  0  0  0  0  0
   -1.5711   -3.4228    2.7513 C   0  0  0  0  0  0  0  0  0  0  0  0
   -3.0663   -3.6927    2.5023 C   0  0  1  0  0  0  0  0  0  0  0  0
   -3.8301   -3.2598    1.0706 C   0  0  1  0  0  0  0  0  0  0  0  0
   -4.7984   -3.9044    1.6551 N   0  0  0  0  0  0  0  0  0  0  0  0
   -5.5930   -2.8456    1.9778 C   0  0  0  0  0  0  0  0  0  0  0  0
   -5.1809   -1.7398    2.4201 O   0  0  0  0  0  0  0  0  0  0  0  0
   -6.4921   -2.7756    1.0432 C   0  0  2  0  0  0  0  0  0  0  0  0
   -5.1601   -3.0972    0.2674 O   0  0  0  0  0  0  0  0  0  0  0  0
   -7.6434   -3.6406    1.9387 C   0  0  0  0  0  0  0  0  0  0  0  0
   -7.8635   -2.8381    3.2827 C   0  0  0  0  0  0  0  0  0  0  0  0
   -9.1084   -4.0485    1.5159 C   0  0  0  0  0  0  0  0  0  0  0  0
   -7.0570   -1.3633    0.8875 N   0  0  0  0  0  0  0  0  0  0  0  0
   -6.7194   -0.2107    0.0202 C   0  0  0  0  0  0  0  0  0  0  0  0
   -7.5032    0.7235    0.1311 O   0  0  0  0  0  0  0  0  0  0  0  0
   -5.5331   -0.0876   -1.3335 C   0  0  1  0  0  0  0  0  0  0  0  0
   -4.2016   -1.0402   -2.7701 C   0  0  0  0  0  0  0  0  0  0  0  0
   -3.7485   -1.7790   -2.2132 N   0  0  0  0  0  0  0  0  0  0  0  0
   -5.3478   -2.2331   -2.8222 C   0  0  2  0  0  0  0  0  0  0  0  0
   -5.9008   -1.4672   -4.3990 C   0  0  0  0  0  0  0  0  0  0  0  0
   -7.3353   -1.3051   -4.5763 C   0  0  0  0  0  0  0  0  0  0  0  0
   -8.1757   -1.0891   -5.6421 C   0  0  0  0  0  0  0  0  0  0  0  0
   -9.4698   -1.0572   -5.2055 N   0  0  0  0  0  0  0  0  0  0  0  0
   -9.4051   -1.1717   -3.8799 C   0  0  0  0  0  0  0  0  0  0  0  0
  -10.4307   -1.2005   -2.9030 C   0  0  0  0  0  0  0  0  0  0  0  0
  -10.0265   -1.3704   -1.5985 C   0  0  0  0  0  0  0  0  0  0  0  0
   -8.7189   -1.5739   -1.3746 C   0  0  0  0  0  0  0  0  0  0  0  0
   -7.7054   -1.5378   -2.2644 C   0  0  0  0  0  0  0  0  0  0  0  0
   -8.1015   -1.3233   -3.5220 C   0  0  0  0  0  0  0  0  0  0  0  0
   -6.3192   -1.9132   -1.8235 C   0  0  0  0  0  0  0  0  0  0  0  0
   -5.6023   -1.1947   -0.9051 C   0  0  0  0  0  0  0  0  0  0  0  0
   -7.6045   -0.9111   -7.4368 Br  0  0  0  0  0  0  0  0  0  0  0  0
   -3.0700   -0.1843   -2.3048 C   0  0  0  0  0  0  0  0  0  0  0  0
   -2.8989   -3.8146    0.1390 O   0  0  0  0  0  0  0  0  0  0  0  0
    1.0139   -0.0248    0.1368 C   0  0  0  0  0  0  0  0  0  0  0  0
    0.5075   -0.8970   -1.3291 S   0  0  0  0  0  0  0  0  0  0  0  0
    1.0083   -2.3408   -1.4423 O   0  0  0  0  0  0  0  0  0  0  0  0
   -0.9754   -1.1557   -1.1405 O   0  0  0  0  0  0  0  0  0  0  0  0
    0.7571   -0.0955   -2.8445 O   0  0  0  0  0  0  0  0  0  0  0  0
   -7.3077   -6.7574   -0.8927 H   0  0  0  0  0  0  0  0  0  0  0  0
   -6.8730   -7.2152    0.7856 H   0  0  0  0  0  0  0  0  0  0  0  0
   -6.7788   -8.4500   -0.4336 H   0  0  0  0  0  0  0  0  0  0  0  0
   -4.4484   -7.5990   -0.0184 H   0  0  0  0  0  0  0  0  0  0  0  0
   -5.5325   -6.7667   -2.7532 H   0  0  0  0  0  0  0  0  0  0  0  0
   -3.8043   -7.0899   -2.3137 H   0  0  0  0  0  0  0  0  0  0  0  0
   -5.0027   -8.4350   -2.2281 H   0  0  0  0  0  0  0  0  0  0  0  0
   -3.9649   -5.3509   -0.8749 H   0  0  0  0  0  0  0  0  0  0  0  0
   -5.6478   -4.9608   -0.9790 H   0  0  0  0  0  0  0  0  0  0  0  0
   -5.9992   -5.5467    1.3975 H   0  0  0  0  0  0  0  0  0  0  0  0
   -1.9022   -6.7365    3.2460 H   0  0  0  0  0  0  0  0  0  0  0  0
   -2.4971   -5.6628    4.6152 H   0  0  0  0  0  0  0  0  0  0  0  0
   -0.3715   -5.1856    2.4990 H   0  0  0  0  0  0  0  0  0  0  0  0
   -0.3755   -4.6261    4.2208 H   0  0  0  0  0  0  0  0  0  0  0  0
   -1.0211   -3.1677    1.8247 H   0  0  0  0  0  0  0  0  0  0  0  0
   -1.4248   -2.6170    3.5071 H   0  0  0  0  0  0  0  0  0  0  0  0
   -3.5338   -3.1682    3.3890 H   0  0  0  0  0  0  0  0  0  0  0  0
   -7.3106   -4.5969    2.3238 H   0  0  0  0  0  0  0  0  0  0  0  0
   -8.4146   -1.8960    3.1409 H   0  0  0  0  0  0  0  0  0  0  0  0
   -8.3335   -3.4462    4.0499 H   0  0  0  0  0  0  0  0  0  0  0  0
   -6.9301   -2.5292    3.7874 H   0  0  0  0  0  0  0  0  0  0  0  0
   -9.2163   -4.7464    0.6594 H   0  0  0  0  0  0  0  0  0  0  0  0
   -9.5366   -4.6271    2.3835 H   0  0  0  0  0  0  0  0  0  0  0  0
   -9.8409   -3.2171    1.4202 H   0  0  0  0  0  0  0  0  0  0  0  0
   -8.0091   -1.2899    1.2962 H   0  0  0  0  0  0  0  0  0  0  0  0
   -5.0746    0.5920   -0.4789 H   0  0  0  0  0  0  0  0  0  0  0  0
   -3.4786   -1.6752   -3.7167 H   0  0  0  0  0  0  0  0  0  0  0  0
   -3.5581   -1.7449   -3.7369 H   0  0  0  0  0  0  0  0  0  0  0  0
   -5.5422   -3.3071   -2.9109 H   0  0  0  0  0  0  0  0  0  0  0  0
   -5.6139   -0.3329   -4.4244 H   0  0  0  0  0  0  0  0  0  0  0  0
   -5.3266   -1.8198   -5.2605 H   0  0  0  0  0  0  0  0  0  0  0  0
  -10.3507   -0.9730   -5.7417 H   0  0  0  0  0  0  0  0  0  0  0  0
  -11.4874   -1.1548   -3.0494 H   0  0  0  0  0  0  0  0  0  0  0  0
  -10.6457   -1.4410   -0.7131 H   0  0  0  0  0  0  0  0  0  0  0  0
   -8.5464   -1.8788   -0.4905 H   0  0  0  0  0  0  0  0  0  0  0  0
   -4.5744   -1.2776   -0.3896 H   0  0  0  0  0  0  0  0  0  0  0  0
   -3.1651    0.5997   -3.3285 H   0  0  0  0  0  0  0  0  0  0  0  0
   -3.3419    0.6412   -1.6008 H   0  0  0  0  0  0  0  0  0  0  0  0
   -2.0364   -0.1490   -2.6600 H   0  0  0  0  0  0  0  0  0  0  0  0
   -2.4767   -4.6769    0.4359 H   0  0  0  0  0  0  0  0  0  0  0  0
    0.5855   -0.5494    1.0145 H   0  0  0  0  0  0  0  0  0  0  0  0
    0.5855    1.0013    0.0847 H   0  0  0  0  0  0  0  0  0  0  0  0
    2.1145   -0.0038    0.1456 H   0  0  0  0  0  0  0  0  0  0  0  0
    0.4779   -0.7036   -3.5714 H   0  0  0  0  0  0  0  0  0  0  0  0
  1  2  1  0  0  0  0
  1 49  1  0  0  0  0
  1 50  1  0  0  0  0
  1 51  1  0  0  0  0
  2  3  1  0  0  0  0
  2  4  1  0  0  0  0
  2 52  1  0  0  0  0
  3 53  1  0  0  0  0
  3 54  1  0  0  0  0
  3 55  1  0  0  0  0
  4  5  1  0  0  0  0
  4 56  1  0  0  0  0
  4 57  1  0  0  0  0
  5  6  1  0  0  0  0
  5 14  1  0  0  0  0
  5 58  1  1  0  0  0
  6  7  2  0  0  0  0
  6  8  1  0  0  0  0
  8  9  1  0  0  0  0
  8 12  1  0  0  0  0
  9 10  1  0  0  0  0
  9 59  1  0  0  0  0
  9 60  1  0  0  0  0
 10 11  1  0  0  0  0
 10 61  1  0  0  0  0
 10 62  1  0  0  0  0
 11 12  1  0  0  0  0
 11 63  1  0  0  0  0
 11 64  1  0  0  0  0
 12 13  1  0  0  0  0
 12 65  1  1  0  0  0
 13 14  1  0  0  0  0
 13 18  1  0  0  0  0
 13 43  1  6  0  0  0
 14 15  1  0  0  0  0
 15 16  2  0  0  0  0
 15 17  1  0  0  0  0
 17 18  1  0  0  0  0
 17 19  1  6  0  0  0
 17 22  1  0  0  0  0
 19 20  1  0  0  0  0
 19 21  1  0  0  0  0
 19 66  1  0  0  0  0
 20 67  1  0  0  0  0
 20 68  1  0  0  0  0
 20 69  1  0  0  0  0
 21 70  1  0  0  0  0
 21 71  1  0  0  0  0
 21 72  1  0  0  0  0
 22 23  1  0  0  0  0
 22 73  1  0  0  0  0
 23 24  2  0  0  0  0
 25 26  1  0  0  0  0
 25 40  1  0  0  0  0
 25 74  1  6  0  0  0
 25 23  1  0  0  0  0
 26 27  1  0  0  0  0
 26 75  1  0  0  0  0
 26 76  1  0  0  0  0
 27 28  1  0  0  0  0
 27 42  1  0  0  0  0
 28 29  1  0  0  0  0
 28 39  1  0  0  0  0
 28 77  1  6  0  0  0
 29 30  1  0  0  0  0
 29 78  1  0  0  0  0
 29 79  1  0  0  0  0
 30 31  2  0  0  0  0
 30 38  1  0  0  0  0
 31 32  1  0  0  0  0
 31 41  1  0  0  0  0
 32 33  1  0  0  0  0
 32 80  1  0  0  0  0
 33 34  2  0  0  0  0
 33 38  1  0  0  0  0
 34 35  1  0  0  0  0
 34 81  1  0  0  0  0
 35 36  2  0  0  0  0
 35 82  1  0  0  0  0
 36 37  1  0  0  0  0
 36 83  1  0  0  0  0
 37 38  2  0  0  0  0
 37 39  1  0  0  0  0
 39 40  2  0  0  0  0
 40 84  1  0  0  0  0
 42 85  1  0  0  0  0
 42 86  1  0  0  0  0
 42 87  1  0  0  0  0
 43 88  1  0  0  0  0
 44 45  1  0  0  0  0
 44 89  1  0  0  0  0
 44 90  1  0  0  0  0
 44 91  1  0  0  0  0
 45 46  2  0  0  0  0
 45 47  2  0  0  0  0
 45 48  1  0  0  0  0
 48 92  1  0  0  0  0
M  END
$$$$

 OpenBabel05152416213D

 29 29  0  0  0  0  0  0  0  0999 V2000
    2.5020    0.0467   -0.0101 C   0  0  0  0  0  0  0  0  0  0  0  0
    0.9964   -0.0214    0.0012 C   0  0  0  0  0  0  0  0  0  0  0  0
    0.2807   -1.2489   -0.0003 C   0  0  0  0  0  0  0  0  0  0  0  0
   -1.1317   -1.1904   -0.0016 C   0  0  0  0  0  0  0  0  0  0  0  0
   -1.8217    0.0333    0.0014 C   0  0  0  0  0  0  0  0  0  0  0  0
   -1.1245    1.2461    0.0102 C   0  0  0  0  0  0  0  0  0  0  0  0
    0.2909    1.1908    0.0089 C   0  0  0  0  0  0  0  0  0  0  0  0
   -1.8094    2.4412    0.0142 O   0  0  0  0  0  0  0  0  0  0  0  0
   -0.9328    3.9325    0.0329 P   0  0  0  0  0  0  0  0  0  0  0  0
   -1.2146    4.0363   -1.7209 S   0  0  0  0  0  0  0  0  0  0  0  0
   -2.4643    4.7284    0.5564 O   0  0  0  0  0  0  0  0  0  0  0  0
   -3.4816    3.8706    1.0587 C   0  0  0  0  0  0  0  0  0  0  0  0
   -0.0562    5.4239    0.0517 O   0  0  0  0  0  0  0  0  0  0  0  0
   -0.8652    6.5852   -0.1409 C   0  0  0  0  0  0  0  0  0  0  0  0
    0.9409   -2.5283   -0.0018 N   0  3  0  0  0  0  0  0  0  0  0  0
    0.2920   -3.5353   -0.0016 O   0  0  0  0  0  0  0  0  0  0  0  0
    2.2494   -2.6379    0.0038 O   0  5  0  0  0  0  0  0  0  0  0  0
    2.9077   -0.4513    0.8948 H   0  0  0  0  0  0  0  0  0  0  0  0
    2.8858   -0.4396   -0.9313 H   0  0  0  0  0  0  0  0  0  0  0  0
    2.8813    1.0904   -0.0076 H   0  0  0  0  0  0  0  0  0  0  0  0
   -1.7092   -2.1062   -0.0060 H   0  0  0  0  0  0  0  0  0  0  0  0
   -2.9038    0.0304   -0.0030 H   0  0  0  0  0  0  0  0  0  0  0  0
    0.8780    2.0958    0.0107 H   0  0  0  0  0  0  0  0  0  0  0  0
   -3.9788    3.3760    0.1930 H   0  0  0  0  0  0  0  0  0  0  0  0
   -3.0960    3.1224    1.7941 H   0  0  0  0  0  0  0  0  0  0  0  0
   -4.2547    4.4483    1.5947 H   0  0  0  0  0  0  0  0  0  0  0  0
   -1.4448    6.5499   -1.0904 H   0  0  0  0  0  0  0  0  0  0  0  0
   -1.5368    6.7807    0.7219 H   0  0  0  0  0  0  0  0  0  0  0  0
   -0.2243    7.4814   -0.2001 H   0  0  0  0  0  0  0  0  0  0  0  0
  1  2  1  0  0  0  0
  1 18  1  0  0  0  0
  1 19  1  0  0  0  0
  1 20  1  0  0  0  0
  2  3  2  0  0  0  0
  2  7  1  0  0  0  0
  3  4  1  0  0  0  0
  3 15  1  0  0  0  0
  4  5  2  0  0  0  0
  4 21  1  0  0  0  0
  5  6  1  0  0  0  0
  5 22  1  0  0  0  0
  6  7  2  0  0  0  0
  6  8  1  0  0  0  0
  7 23  1  0  0  0  0
  8  9  1  0  0  0  0
  9 10  2  0  0  0  0
  9 11  1  0  0  0  0
  9 13  1  0  0  0  0
 11 12  1  0  0  0  0
 12 24  1  0  0  0  0
 12 25  1  0  0  0  0
 12 26  1  0  0  0  0
 13 14  1  0  0  0  0
 14 27  1  0  0  0  0
 14 28  1  0  0  0  0
 14 29  1  0  0  0  0
 15 16  2  0  0  0  0
 15 17  1  0  0  0  0
M  CHG  2  15   1  17  -1
M  END
$$$$

 OpenBabel05152416213D

 40 41  0  0  0  0  0  0  0  0999 V2000
    0.8703    0.1575   -0.2170 C   0  0  0  0  0  0  0  0  0  0  0  0
    0.4661   -1.0543   -1.0807 C   0  0  0  0  0  0  0  0  0  0  0  0
    0.9838   -2.2672   -0.6318 O   0  0  0  0  0  0  0  0  0  0  0  0
    2.3044   -2.5923   -0.4974 C   0  0  0  0  0  0  0  0  0  0  0  0
    3.1700   -1.7954   -0.8314 O   0  0  0  0  0  0  0  0  0  0  0  0
    2.7290   -3.9516    0.0499 C   0  0  0  0  0  0  0  0  0  0  0  0
    2.2600   -4.2897    1.5050 C   0  0  0  0  0  0  0  0  0  0  0  0
    0.7425   -4.3369    1.6352 C   0  0  0  0  0  0  0  0  0  0  0  0
    0.0262   -5.5579    1.5991 C   0  0  0  0  0  0  0  0  0  0  0  0
   -1.3904   -5.5735    1.5715 C   0  0  0  0  0  0  0  0  0  0  0  0
   -2.0616   -4.3262    1.4966 C   0  0  0  0  0  0  0  0  0  0  0  0
   -1.3522   -3.1218    1.6213 C   0  0  0  0  0  0  0  0  0  0  0  0
    0.0332   -3.1411    1.7657 C   0  0  0  0  0  0  0  0  0  0  0  0
    0.8967   -1.6802    2.2191 Cl  0  0  0  0  0  0  0  0  0  0  0  0
   -3.4128   -4.2712    1.3896 F   0  0  0  0  0  0  0  0  0  0  0  0
   -2.1440   -6.8212    1.5329 N   0  0  0  0  0  0  0  0  0  0  0  0
   -2.1848   -7.9080    2.3775 C   0  0  0  0  0  0  0  0  0  0  0  0
   -1.5462   -8.0023    3.4198 O   0  0  0  0  0  0  0  0  0  0  0  0
   -3.0693   -8.8580    1.9263 N   0  0  0  0  0  0  0  0  0  0  0  0
   -3.5245   -8.3080    0.7772 C   0  0  0  0  0  0  0  0  0  0  0  0
   -2.9999   -7.0856    0.5505 N   0  0  0  0  0  0  0  0  0  0  0  0
   -4.4879   -8.9661   -0.1562 C   0  0  0  0  0  0  0  0  0  0  0  0
   -3.5008  -10.1689    2.4689 C   0  0  0  0  0  0  0  0  0  0  0  0
   -2.4361  -11.0397    2.6010 F   0  0  0  0  0  0  0  0  0  0  0  0
   -4.1401  -10.0209    3.6871 F   0  0  0  0  0  0  0  0  0  0  0  0
    2.2022   -5.2309   -1.0816 Cl  0  0  0  0  0  0  0  0  0  0  0  0
    0.3569    0.1870    0.7575 H   0  0  0  0  0  0  0  0  0  0  0  0
    0.5420    1.0982   -0.6898 H   0  0  0  0  0  0  0  0  0  0  0  0
    1.9681    0.1945   -0.0626 H   0  0  0  0  0  0  0  0  0  0  0  0
   -0.6455   -1.1202   -1.0751 H   0  0  0  0  0  0  0  0  0  0  0  0
    0.8036   -0.8787   -2.1195 H   0  0  0  0  0  0  0  0  0  0  0  0
    3.8435   -3.9783    0.0534 H   0  0  0  0  0  0  0  0  0  0  0  0
    2.6803   -5.2790    1.7688 H   0  0  0  0  0  0  0  0  0  0  0  0
    2.7084   -3.5689    2.2203 H   0  0  0  0  0  0  0  0  0  0  0  0
    0.5756   -6.4849    1.5508 H   0  0  0  0  0  0  0  0  0  0  0  0
   -1.8743   -2.1683    1.6317 H   0  0  0  0  0  0  0  0  0  0  0  0
   -4.0646   -9.9328   -0.5082 H   0  0  0  0  0  0  0  0  0  0  0  0
   -5.4516   -9.1532    0.3591 H   0  0  0  0  0  0  0  0  0  0  0  0
   -4.6572   -8.3136   -1.0341 H   0  0  0  0  0  0  0  0  0  0  0  0
   -4.2352  -10.6584    1.7885 H   0  0  0  0  0  0  0  0  0  0  0  0
  1  2  1  0  0  0  0
  1 27  1  0  0  0  0
  1 28  1  0  0  0  0
  1 29  1  0  0  0  0
  2  3  1  0  0  0  0
  2 30  1  0  0  0  0
  2 31  1  0  0  0  0
  3  4  1  0  0  0  0
  4  5  2  0  0  0  0
  4  6  1  0  0  0  0
  6  7  1  0  0  0  0
  6 26  1  0  0  0  0
  6 32  1  0  0  0  0
  7  8  1  0  0  0  0
  7 33  1  0  0  0  0
  7 34  1  0  0  0  0
  8  9  2  0  0  0  0
  8 13  1  0  0  0  0
  9 10  1  0  0  0  0
  9 35  1  0  0  0  0
 10 11  2  0  0  0  0
 10 16  1  0  0  0  0
 11 12  1  0  0  0  0
 11 15  1  0  0  0  0
 12 13  2  0  0  0  0
 12 36  1  0  0  0  0
 13 14  1  0  0  0  0
 16 17  1  0  0  0  0
 16 21  1  0  0  0  0
 17 18  2  0  0  0  0
 17 19  1  0  0  0  0
 19 20  1  0  0  0  0
 19 23  1  0  0  0  0
 20 21  2  0  0  0  0
 20 22  1  0  0  0  0
 22 37  1  0  0  0  0
 22 38  1  0  0  0  0
 22 39  1  0  0  0  0
 23 24  1  0  0  0  0
 23 25  1  0  0  0  0
 23 40  1  0  0  0  0
M  END
$$$$

 OpenBabel05152416213D

 22 22  0  0  0  0  0  0  0  0999 V2000
    1.0346    0.2311    0.1015 C   0  0  0  0  0  0  0  0  0  0  0  0
    0.6699   -0.9384   -0.7575 C   0  0  0  0  0  0  0  0  0  0  0  0
    0.9880   -2.2119   -0.4315 C   0  0  0  0  0  0  0  0  0  0  0  0
    0.5677   -3.5374   -1.5478 S   0  0  0  0  0  0  0  0  0  0  0  0
   -0.2136   -4.5824   -0.7340 O   0  0  0  0  0  0  0  0  0  0  0  0
    1.8541   -4.3396   -1.8029 O   0  0  0  0  0  0  0  0  0  0  0  0
   -0.2852   -3.3299   -3.1364 C   0  0  0  0  0  0  0  0  0  0  0  0
   -0.6054   -1.8734   -3.5345 C   0  0  0  0  0  0  0  0  0  0  0  0
   -0.2015   -0.6130   -2.2873 S   0  0  0  0  0  0  0  0  0  0  0  0
    0.5868    0.4908   -3.0121 O   0  0  0  0  0  0  0  0  0  0  0  0
   -1.4780    0.1773   -1.9543 O   0  0  0  0  0  0  0  0  0  0  0  0
    1.6952   -2.6118    0.8285 C   0  0  0  0  0  0  0  0  0  0  0  0
    0.5759    0.1249    1.1048 H   0  0  0  0  0  0  0  0  0  0  0  0
    0.6720    1.1768   -0.3542 H   0  0  0  0  0  0  0  0  0  0  0  0
    2.1407    0.2835    0.1782 H   0  0  0  0  0  0  0  0  0  0  0  0
   -1.2333   -3.8998   -3.0615 H   0  0  0  0  0  0  0  0  0  0  0  0
    0.3473   -3.7847   -3.9277 H   0  0  0  0  0  0  0  0  0  0  0  0
   -0.0280   -1.6159   -4.4460 H   0  0  0  0  0  0  0  0  0  0  0  0
   -1.6883   -1.8000   -3.7689 H   0  0  0  0  0  0  0  0  0  0  0  0
    1.0494   -3.3304    1.3767 H   0  0  0  0  0  0  0  0  0  0  0  0
    2.6452   -3.1162    0.5567 H   0  0  0  0  0  0  0  0  0  0  0  0
    1.9212   -1.7649    1.5017 H   0  0  0  0  0  0  0  0  0  0  0  0
  1  2  1  0  0  0  0
  1 13  1  0  0  0  0
  1 14  1  0  0  0  0
  1 15  1  0  0  0  0
  2  3  2  0  0  0  0
  2  9  1  0  0  0  0
  3  4  1  0  0  0  0
  3 12  1  0  0  0  0
  4  5  2  0  0  0  0
  4  6  2  0  0  0  0
  4  7  1  0  0  0  0
  7  8  1  0  0  0  0
  7 16  1  0  0  0  0
  7 17  1  0  0  0  0
  8  9  1  0  0  0  0
  8 18  1  0  0  0  0
  8 19  1  0  0  0  0
  9 10  2  0  0  0  0
  9 11  2  0  0  0  0
 12 20  1  0  0  0  0
 12 21  1  0  0  0  0
 12 22  1  0  0  0  0
M  END
$$$$

 OpenBabel05152416213D

 34 36  0  0  0  0  0  0  0  0999 V2000
    2.3997    0.0691    0.0620 C   0  0  0  0  0  0  0  0  0  0  0  0
    1.7115    1.2692    0.0091 C   0  0  0  0  0  0  0  0  0  0  0  0
    0.3208    1.2684   -0.0171 C   0  0  0  0  0  0  0  0  0  0  0  0
   -0.4041    0.0682   -0.0244 C   0  0  0  0  0  0  0  0  0  0  0  0
    0.2850   -1.1878   -0.0028 C   0  0  0  0  0  0  0  0  0  0  0  0
    1.7024   -1.1323    0.0741 C   0  0  0  0  0  0  0  0  0  0  0  0
   -0.4207   -2.5750   -0.0568 C   0  0  0  0  0  0  0  0  0  0  0  0
   -0.0429   -3.2516   -1.4016 C   0  0  0  0  0  0  0  0  0  0  0  0
    1.2781   -3.6803   -1.6918 C   0  0  0  0  0  0  0  0  0  0  0  0
    1.6087   -4.2592   -2.9077 C   0  0  0  0  0  0  0  0  0  0  0  0
    0.6347   -4.4317   -3.8815 C   0  0  0  0  0  0  0  0  0  0  0  0
   -0.6780   -4.0322   -3.6301 C   0  0  0  0  0  0  0  0  0  0  0  0
   -1.0176   -3.4490   -2.4068 C   0  0  0  0  0  0  0  0  0  0  0  0
    0.9652   -4.9923   -5.0684 F   0  0  0  0  0  0  0  0  0  0  0  0
   -0.0167   -3.3709    1.1899 C   0  0  0  0  0  0  0  0  0  0  0  0
   -0.2981   -2.8289    2.4532 C   0  0  0  0  0  0  0  0  0  0  0  0
    0.1092   -3.4683    3.5809 N   0  0  0  0  0  0  0  0  0  0  0  0
    0.7831   -4.6414    3.5094 C   0  0  0  0  0  0  0  0  0  0  0  0
    1.0250   -5.2173    2.3099 N   0  0  0  0  0  0  0  0  0  0  0  0
    0.6330   -4.6202    1.1567 C   0  0  0  0  0  0  0  0  0  0  0  0
   -1.8185   -2.4031   -0.0018 O   0  0  0  0  0  0  0  0  0  0  0  0
   -2.1565    0.2686   -0.0649 Cl  0  0  0  0  0  0  0  0  0  0  0  0
    3.4825    0.0620    0.0967 H   0  0  0  0  0  0  0  0  0  0  0  0
    2.2583    2.2017    0.0012 H   0  0  0  0  0  0  0  0  0  0  0  0
   -0.2013    2.2151   -0.0383 H   0  0  0  0  0  0  0  0  0  0  0  0
    2.3115   -2.0053    0.1564 H   0  0  0  0  0  0  0  0  0  0  0  0
    2.0814   -3.6176   -0.9888 H   0  0  0  0  0  0  0  0  0  0  0  0
    2.6294   -4.5757   -3.0819 H   0  0  0  0  0  0  0  0  0  0  0  0
   -1.4384   -4.1698   -4.3848 H   0  0  0  0  0  0  0  0  0  0  0  0
   -2.0463   -3.1471   -2.2668 H   0  0  0  0  0  0  0  0  0  0  0  0
   -0.8280   -1.8888    2.5417 H   0  0  0  0  0  0  0  0  0  0  0  0
    1.1294   -5.1239    4.4116 H   0  0  0  0  0  0  0  0  0  0  0  0
    0.8508   -5.1374    0.2404 H   0  0  0  0  0  0  0  0  0  0  0  0
   -2.2523   -3.2972    0.0239 H   0  0  0  0  0  0  0  0  0  0  0  0
  1  2  2  0  0  0  0
  1  6  1  0  0  0  0
  1 23  1  0  0  0  0
  2  3  1  0  0  0  0
  2 24  1  0  0  0  0
  3  4  2  0  0  0  0
  3 25  1  0  0  0  0
  4  5  1  0  0  0  0
  4 22  1  0  0  0  0
  5  6  2  0  0  0  0
  5  7  1  0  0  0  0
  6 26  1  0  0  0  0
  7  8  1  0  0  0  0
  7 15  1  0  0  0  0
  7 21  1  0  0  0  0
  8  9  2  0  0  0  0
  8 13  1  0  0  0  0
  9 10  1  0  0  0  0
  9 27  1  0  0  0  0
 10 11  2  0  0  0  0
 10 28  1  0  0  0  0
 11 12  1  0  0  0  0
 11 14  1  0  0  0  0
 12 13  2  0  0  0  0
 12 29  1  0  0  0  0
 13 30  1  0  0  0  0
 15 16  2  0  0  0  0
 15 20  1  0  0  0  0
 16 17  1  0  0  0  0
 16 31  1  0  0  0  0
 17 18  2  0  0  0  0
 18 19  1  0  0  0  0
 18 32  1  0  0  0  0
 19 20  2  0  0  0  0
 20 33  1  0  0  0  0
 21 34  1  0  0  0  0
M  END
$$$$

 OpenBabel05152416213D

 42 41  0  0  0  0  0  0  0  0999 V2000
    1.2101    0.1612   -0.0371 C   0  0  0  0  0  0  0  0  0  0  0  0
    0.5742    1.4021    0.6259 C   0  0  0  0  0  0  0  0  0  0  0  0
    1.0144    2.6524   -0.1322 C   0  0  0  0  0  0  0  0  0  0  0  0
   -0.9785    1.3416    0.6794 C   0  0  0  0  0  0  0  0  0  0  0  0
   -1.5455    0.1472    1.4685 C   0  0  0  0  0  0  0  0  0  0  0  0
   -1.0701    0.1610    2.9386 C   0  0  0  0  0  0  0  0  0  0  0  0
   -3.0655    0.1472    1.4685 C   0  0  0  0  0  0  0  0  0  0  0  0
   -4.3694    0.1472    1.4685 C   0  0  0  0  0  0  0  0  0  0  0  0
   -5.8894    0.1472    1.4685 C   0  0  0  0  0  0  0  0  0  0  0  0
   -6.3621   -1.0860    2.2559 C   0  0  0  0  0  0  0  0  0  0  0  0
   -6.4025    1.4457    2.1250 C   0  0  0  0  0  0  0  0  0  0  0  0
   -5.9151    2.7481    1.4400 C   0  0  0  0  0  0  0  0  0  0  0  0
   -6.3845    2.8704   -0.0194 C   0  0  0  0  0  0  0  0  0  0  0  0
   -6.4208    3.9505    2.2374 C   0  0  0  0  0  0  0  0  0  0  0  0
   -6.3403    0.0069    0.1454 O   0  0  0  0  0  0  0  0  0  0  0  0
   -1.1659   -1.0539    0.8434 O   0  0  0  0  0  0  0  0  0  0  0  0
    0.7818    0.0008   -1.0501 H   0  0  0  0  0  0  0  0  0  0  0  0
    1.0718   -0.7501    0.5747 H   0  0  0  0  0  0  0  0  0  0  0  0
    2.3076    0.2822   -0.1175 H   0  0  0  0  0  0  0  0  0  0  0  0
    0.9864    1.4956    1.6523 H   0  0  0  0  0  0  0  0  0  0  0  0
    0.6452    2.6249   -1.1790 H   0  0  0  0  0  0  0  0  0  0  0  0
    0.6196    3.5597    0.3738 H   0  0  0  0  0  0  0  0  0  0  0  0
    2.1230    2.7152   -0.1375 H   0  0  0  0  0  0  0  0  0  0  0  0
   -1.3553    2.2781    1.1535 H   0  0  0  0  0  0  0  0  0  0  0  0
   -1.3819    1.3060   -0.3578 H   0  0  0  0  0  0  0  0  0  0  0  0
   -1.3796    1.1031    3.4398 H   0  0  0  0  0  0  0  0  0  0  0  0
   -1.5124   -0.6912    3.4994 H   0  0  0  0  0  0  0  0  0  0  0  0
    0.0303    0.0536    3.0147 H   0  0  0  0  0  0  0  0  0  0  0  0
   -5.9915   -1.0652    3.3025 H   0  0  0  0  0  0  0  0  0  0  0  0
   -7.4726   -1.1315    2.2717 H   0  0  0  0  0  0  0  0  0  0  0  0
   -5.9904   -2.0134    1.7658 H   0  0  0  0  0  0  0  0  0  0  0  0
   -7.5151    1.4287    2.1513 H   0  0  0  0  0  0  0  0  0  0  0  0
   -6.0463    1.4540    3.1814 H   0  0  0  0  0  0  0  0  0  0  0  0
   -4.8035    2.7832    1.4550 H   0  0  0  0  0  0  0  0  0  0  0  0
   -7.4904    2.7750   -0.0806 H   0  0  0  0  0  0  0  0  0  0  0  0
   -6.0758    3.8461   -0.4436 H   0  0  0  0  0  0  0  0  0  0  0  0
   -5.9099    2.1099   -0.6676 H   0  0  0  0  0  0  0  0  0  0  0  0
   -6.0417    3.9032    3.2806 H   0  0  0  0  0  0  0  0  0  0  0  0
   -6.0499    4.8897    1.7761 H   0  0  0  0  0  0  0  0  0  0  0  0
   -7.5315    3.9660    2.2548 H   0  0  0  0  0  0  0  0  0  0  0  0
   -7.3315    0.0802    0.1521 H   0  0  0  0  0  0  0  0  0  0  0  0
   -1.4529   -1.8164    1.4156 H   0  0  0  0  0  0  0  0  0  0  0  0
  1  2  1  0  0  0  0
  1 17  1  0  0  0  0
  1 18  1  0  0  0  0
  1 19  1  0  0  0  0
  2  3  1  0  0  0  0
  2  4  1  0  0  0  0
  2 20  1  0  0  0  0
  3 21  1  0  0  0  0
  3 22  1  0  0  0  0
  3 23  1  0  0  0  0
  4  5  1  0  0  0  0
  4 24  1  0  0  0  0
  4 25  1  0  0  0  0
  5  6  1  0  0  0  0
  5  7  1  0  0  0  0
  5 16  1  0  0  0  0
  6 26  1  0  0  0  0
  6 27  1  0  0  0  0
  6 28  1  0  0  0  0
  7  8  3  0  0  0  0
  8  9  1  0  0  0  0
  9 10  1  0  0  0  0
  9 11  1  0  0  0  0
  9 15  1  0  0  0  0
 10 29  1  0  0  0  0
 10 30  1  0  0  0  0
 10 31  1  0  0  0  0
 11 12  1  0  0  0  0
 11 32  1  0  0  0  0
 11 33  1  0  0  0  0
 12 13  1  0  0  0  0
 12 14  1  0  0  0  0
 12 34  1  0  0  0  0
 13 35  1  0  0  0  0
 13 36  1  0  0  0  0
 13 37  1  0  0  0  0
 14 38  1  0  0  0  0
 14 39  1  0  0  0  0
 14 40  1  0  0  0  0
 15 41  1  0  0  0  0
 16 42  1  0  0  0  0
M  END
$$$$

 OpenBabel05152416213D

 38 38  0  0  0  0  0  0  0  0999 V2000
    0.9805    0.2543   -0.1572 C   0  0  0  0  0  0  0  0  0  0  0  0
    0.6034   -1.1371   -0.6548 C   0  0  0  0  0  0  0  0  0  0  0  0
    1.1980   -2.2005    0.2828 C   0  0  0  0  0  0  0  0  0  0  0  0
    0.6830   -2.0467    1.7376 C   0  0  0  0  0  0  0  0  0  0  0  0
   -0.8276   -2.2329    1.8133 C   0  0  0  0  0  0  0  0  0  0  0  0
   -1.1433   -3.6417    1.3381 C   0  0  0  0  0  0  0  0  0  0  0  0
   -0.6398   -4.7559    2.2416 C   0  0  0  0  0  0  0  0  0  0  0  0
   -1.4056   -4.7504    3.5929 C   0  0  0  0  0  0  0  0  0  0  0  0
   -2.9704   -4.7384    3.5594 C   0  0  0  0  0  0  0  0  0  0  0  0
   -3.5998   -5.8304    2.9136 O   0  0  0  0  0  0  0  0  0  0  0  0
   -3.5419   -5.8155    1.4855 C   0  0  0  0  0  0  0  0  0  0  0  0
   -4.4711   -4.8202    0.7092 C   0  0  0  0  0  0  0  0  0  0  0  0
   -4.5221   -3.3143    0.9972 C   0  0  0  0  0  0  0  0  0  0  0  0
   -3.7440   -3.8562   -0.0553 O   0  0  0  0  0  0  0  0  0  0  0  0
    0.5230    0.4716    0.8295 H   0  0  0  0  0  0  0  0  0  0  0  0
    0.6115    1.0287   -0.8501 H   0  0  0  0  0  0  0  0  0  0  0  0
    2.0860    0.3076   -0.0642 H   0  0  0  0  0  0  0  0  0  0  0  0
   -0.5027   -1.2228   -0.7435 H   0  0  0  0  0  0  0  0  0  0  0  0
    1.0055   -1.2934   -1.6760 H   0  0  0  0  0  0  0  0  0  0  0  0
    0.9909   -3.2062   -0.1391 H   0  0  0  0  0  0  0  0  0  0  0  0
    2.3002   -2.1328    0.2855 H   0  0  0  0  0  0  0  0  0  0  0  0
    1.1846   -2.7770    2.3928 H   0  0  0  0  0  0  0  0  0  0  0  0
    0.9576   -1.0775    2.1831 H   0  0  0  0  0  0  0  0  0  0  0  0
   -1.2029   -2.0634    2.8417 H   0  0  0  0  0  0  0  0  0  0  0  0
   -1.3785   -1.4854    1.1975 H   0  0  0  0  0  0  0  0  0  0  0  0
   -2.1572   -3.7479    1.3976 H   0  0  0  0  0  0  0  0  0  0  0  0
   -0.9274   -3.7991    0.2626 H   0  0  0  0  0  0  0  0  0  0  0  0
   -0.7439   -5.7163    1.7228 H   0  0  0  0  0  0  0  0  0  0  0  0
    0.4522   -4.7205    2.3814 H   0  0  0  0  0  0  0  0  0  0  0  0
   -1.0609   -5.6203    4.1759 H   0  0  0  0  0  0  0  0  0  0  0  0
   -1.1118   -3.8347    4.1490 H   0  0  0  0  0  0  0  0  0  0  0  0
   -3.3018   -4.7673    4.6210 H   0  0  0  0  0  0  0  0  0  0  0  0
   -3.4060   -3.7815    3.2530 H   0  0  0  0  0  0  0  0  0  0  0  0
   -2.5755   -6.0967    1.0513 H   0  0  0  0  0  0  0  0  0  0  0  0
   -3.9993   -6.7918    1.2319 H   0  0  0  0  0  0  0  0  0  0  0  0
   -5.0387   -5.2895   -0.1100 H   0  0  0  0  0  0  0  0  0  0  0  0
   -5.3878   -2.7863    0.5934 H   0  0  0  0  0  0  0  0  0  0  0  0
   -3.8372   -2.6609    1.5760 H   0  0  0  0  0  0  0  0  0  0  0  0
  1  2  1  0  0  0  0
  1 15  1  0  0  0  0
  1 16  1  0  0  0  0
  1 17  1  0  0  0  0
  2  3  1  0  0  0  0
  2 18  1  0  0  0  0
  2 19  1  0  0  0  0
  3  4  1  0  0  0  0
  3 20  1  0  0  0  0
  3 21  1  0  0  0  0
  4  5  1  0  0  0  0
  4 22  1  0  0  0  0
  4 23  1  0  0  0  0
  5  6  1  0  0  0  0
  5 24  1  0  0  0  0
  5 25  1  0  0  0  0
  6  7  1  0  0  0  0
  6 26  1  0  0  0  0
  6 27  1  0  0  0  0
  7  8  1  0  0  0  0
  7 28  1  0  0  0  0
  7 29  1  0  0  0  0
  8  9  1  0  0  0  0
  8 30  1  0  0  0  0
  8 31  1  0  0  0  0
  9 10  1  0  0  0  0
  9 32  1  0  0  0  0
  9 33  1  0  0  0  0
 10 11  1  0  0  0  0
 11 12  1  0  0  0  0
 11 34  1  0  0  0  0
 11 35  1  0  0  0  0
 12 13  1  0  0  0  0
 12 14  1  0  0  0  0
 12 36  1  0  0  0  0
 13 14  1  0  0  0  0
 13 37  1  0  0  0  0
 13 38  1  0  0  0  0
M  END
$$$$

 OpenBabel05152416213D

 30 31  0  0  0  0  0  0  0  0999 V2000
    1.4867   -0.3020    0.0128 C   0  0  0  0  0  0  0  0  0  0  0  0
    0.9785    0.9919   -0.0810 C   0  0  0  0  0  0  0  0  0  0  0  0
   -0.3965    1.1909   -0.1130 C   0  0  0  0  0  0  0  0  0  0  0  0
   -1.2812    0.0937    0.0100 C   0  0  0  0  0  0  0  0  0  0  0  0
   -0.7582   -1.1954    0.0860 C   0  0  0  0  0  0  0  0  0  0  0  0
    0.6173   -1.3946    0.0757 C   0  0  0  0  0  0  0  0  0  0  0  0
   -2.7703    0.2265   -0.0399 C   0  0  0  0  0  0  0  0  0  0  0  0
   -3.4138    1.2102    0.9793 C   0  0  0  0  0  0  0  0  0  0  0  0
   -2.9011    2.6676    1.0593 C   0  0  0  0  0  0  0  0  0  0  0  0
   -2.9777    3.5047   -0.2274 C   0  0  0  0  0  0  0  0  0  0  0  0
   -2.6871    4.8770   -0.1457 C   0  0  0  0  0  0  0  0  0  0  0  0
   -2.7249    5.6678   -1.3055 C   0  0  0  0  0  0  0  0  0  0  0  0
   -2.9877    5.1189   -2.5120 N   0  0  0  0  0  0  0  0  0  0  0  0
   -3.2742    3.7976   -2.6324 C   0  0  0  0  0  0  0  0  0  0  0  0
   -3.3130    3.0031   -1.5037 C   0  0  0  0  0  0  0  0  0  0  0  0
    2.5535   -0.4571    0.0178 H   0  0  0  0  0  0  0  0  0  0  0  0
    1.6442    1.8443   -0.1454 H   0  0  0  0  0  0  0  0  0  0  0  0
   -0.7251    2.2065   -0.2394 H   0  0  0  0  0  0  0  0  0  0  0  0
   -1.4260   -2.0477    0.1197 H   0  0  0  0  0  0  0  0  0  0  0  0
    1.0004   -2.4012    0.1118 H   0  0  0  0  0  0  0  0  0  0  0  0
   -2.9554    0.3572   -1.0970 H   0  0  0  0  0  0  0  0  0  0  0  0
   -3.2846   -0.7465    0.1061 H   0  0  0  0  0  0  0  0  0  0  0  0
   -4.5051    1.2621    0.7809 H   0  0  0  0  0  0  0  0  0  0  0  0
   -3.2842    0.7627    1.9913 H   0  0  0  0  0  0  0  0  0  0  0  0
   -3.4819    3.1753    1.8579 H   0  0  0  0  0  0  0  0  0  0  0  0
   -1.8665    2.6674    1.4728 H   0  0  0  0  0  0  0  0  0  0  0  0
   -2.4570    5.3327    0.8059 H   0  0  0  0  0  0  0  0  0  0  0  0
   -2.5386    6.7294   -1.2439 H   0  0  0  0  0  0  0  0  0  0  0  0
   -3.4820    3.3585   -3.5992 H   0  0  0  0  0  0  0  0  0  0  0  0
   -3.6078    2.0228   -1.7218 H   0  0  0  0  0  0  0  0  0  0  0  0
  1  2  2  0  0  0  0
  1  6  1  0  0  0  0
  1 16  1  0  0  0  0
  2  3  1  0  0  0  0
  2 17  1  0  0  0  0
  3  4  2  0  0  0  0
  3 18  1  0  0  0  0
  4  5  1  0  0  0  0
  4  7  1  0  0  0  0
  5  6  2  0  0  0  0
  5 19  1  0  0  0  0
  6 20  1  0  0  0  0
  7  8  1  0  0  0  0
  7 21  1  0  0  0  0
  7 22  1  0  0  0  0
  8  9  1  0  0  0  0
  8 23  1  0  0  0  0
  8 24  1  0  0  0  0
  9 10  1  0  0  0  0
  9 25  1  0  0  0  0
  9 26  1  0  0  0  0
 10 11  2  0  0  0  0
 10 15  1  0  0  0  0
 11 12  1  0  0  0  0
 11 27  1  0  0  0  0
 12 13  2  0  0  0  0
 12 28  1  0  0  0  0
 13 14  1  0  0  0  0
 14 15  2  0  0  0  0
 14 29  1  0  0  0  0
 15 30  1  0  0  0  0
M  END
$$$$

 OpenBabel05152416213D

 17 17  0  0  0  0  0  0  0  0999 V2000
    1.3710   -0.2066    0.0262 C   0  0  0  0  0  0  0  0  0  0  0  0
    0.8718    1.0597   -0.0622 C   0  0  0  0  0  0  0  0  0  0  0  0
   -0.4992    1.2784    0.0631 C   0  0  0  0  0  0  0  0  0  0  0  0
   -1.3740    0.1970   -0.0350 C   0  0  0  0  0  0  0  0  0  0  0  0
   -0.8862   -1.0799   -0.0092 C   0  0  0  0  0  0  0  0  0  0  0  0
    0.4987   -1.2689    0.0068 C   0  0  0  0  0  0  0  0  0  0  0  0
   -1.7337   -2.2098    0.0493 N   0  0  0  0  0  0  0  0  0  0  0  0
   -1.2825   -3.4360    0.1024 C   0  0  0  0  0  0  0  0  0  0  0  0
   -0.8275   -4.5470    0.1409 O   0  0  0  0  0  0  0  0  0  0  0  0
   -1.0490    2.5773    0.3628 C   0  0  0  0  0  0  0  0  0  0  0  0
   -0.5386    3.0372    1.5505 F   0  0  0  0  0  0  0  0  0  0  0  0
   -0.7222    3.4491   -0.6050 F   0  0  0  0  0  0  0  0  0  0  0  0
   -2.4029    2.5467    0.4911 F   0  0  0  0  0  0  0  0  0  0  0  0
    2.3971   -0.4110    0.1359 H   0  0  0  0  0  0  0  0  0  0  0  0
    1.5490    1.9162   -0.2210 H   0  0  0  0  0  0  0  0  0  0  0  0
   -2.4279    0.3946   -0.1457 H   0  0  0  0  0  0  0  0  0  0  0  0
    0.8901   -2.2515   -0.0323 H   0  0  0  0  0  0  0  0  0  0  0  0
  1  2  2  0  0  0  0
  1  6  1  0  0  0  0
  1 14  1  0  0  0  0
  2  3  1  0  0  0  0
  2 15  1  0  0  0  0
  3  4  2  0  0  0  0
  3 10  1  0  0  0  0
  4  5  1  0  0  0  0
  4 16  1  0  0  0  0
  5  6  2  0  0  0  0
  5  7  1  0  0  0  0
  6 17  1  0  0  0  0
  7  8  2  0  0  0  0
  8  9  2  0  0  0  0
 10 11  1  0  0  0  0
 10 12  1  0  0  0  0
 10 13  1  0  0  0  0
M  END
$$$$

 OpenBabel05152416213D

 31 32  0  0  0  0  0  0  0  0999 V2000
    0.8865   -0.0774    0.0395 C   0  0  0  0  0  0  0  0  0  0  0  0
    0.5989   -0.6495   -1.2472 O   0  0  0  0  0  0  0  0  0  0  0  0
    1.1756    0.2421   -2.6130 P   0  0  0  0  0  0  0  0  0  0  0  0
    1.3696    1.8571   -1.8703 S   0  0  0  0  0  0  0  0  0  0  0  0
    2.8376   -0.3676   -2.3324 O   0  0  0  0  0  0  0  0  0  0  0  0
    2.8806   -1.6482   -1.6804 C   0  0  0  0  0  0  0  0  0  0  0  0
    1.8822    1.3347   -4.2867 S   0  0  0  0  0  0  0  0  0  0  0  0
    0.8548    0.8293   -5.6644 C   0  0  0  0  0  0  0  0  0  0  0  0
    1.0799   -0.5754   -5.9795 N   0  0  0  0  0  0  0  0  0  0  0  0
    1.2024   -1.0029   -7.2822 C   0  0  0  0  0  0  0  0  0  0  0  0
    1.1827   -0.2088   -8.2081 O   0  0  0  0  0  0  0  0  0  0  0  0
    1.2541   -2.3751   -7.5262 C   0  0  0  0  0  0  0  0  0  0  0  0
    1.2572   -2.8921   -8.8266 C   0  0  0  0  0  0  0  0  0  0  0  0
    1.1519   -4.2696   -9.0165 C   0  0  0  0  0  0  0  0  0  0  0  0
    1.1055   -5.1341   -7.9166 C   0  0  0  0  0  0  0  0  0  0  0  0
    1.1884   -4.6277   -6.6200 C   0  0  0  0  0  0  0  0  0  0  0  0
    1.2338   -3.2513   -6.4269 C   0  0  0  0  0  0  0  0  0  0  0  0
    1.1893   -2.7579   -5.1763 N   0  0  0  0  0  0  0  0  0  0  0  0
    1.0833   -1.4491   -4.9786 N   0  0  0  0  0  0  0  0  0  0  0  0
    0.6863   -0.8115    0.8404 H   0  0  0  0  0  0  0  0  0  0  0  0
    0.2597    0.8151    0.2502 H   0  0  0  0  0  0  0  0  0  0  0  0
    1.9543    0.2284    0.1494 H   0  0  0  0  0  0  0  0  0  0  0  0
    2.8887   -1.5303   -0.5788 H   0  0  0  0  0  0  0  0  0  0  0  0
    2.0512   -2.3408   -1.9637 H   0  0  0  0  0  0  0  0  0  0  0  0
    3.8312   -2.1772   -1.8702 H   0  0  0  0  0  0  0  0  0  0  0  0
   -0.2108    1.0405   -5.4522 H   0  0  0  0  0  0  0  0  0  0  0  0
    1.1546    1.4806   -6.5175 H   0  0  0  0  0  0  0  0  0  0  0  0
    1.2852   -2.2338   -9.6861 H   0  0  0  0  0  0  0  0  0  0  0  0
    1.0854   -4.6606  -10.0197 H   0  0  0  0  0  0  0  0  0  0  0  0
    0.9920   -6.1964   -8.0664 H   0  0  0  0  0  0  0  0  0  0  0  0
    1.1634   -5.2937   -5.7656 H   0  0  0  0  0  0  0  0  0  0  0  0
  1  2  1  0  0  0  0
  1 20  1  0  0  0  0
  1 21  1  0  0  0  0
  1 22  1  0  0  0  0
  2  3  1  0  0  0  0
  3  4  2  0  0  0  0
  3  5  1  0  0  0  0
  3  7  1  0  0  0  0
  5  6  1  0  0  0  0
  6 23  1  0  0  0  0
  6 24  1  0  0  0  0
  6 25  1  0  0  0  0
  7  8  1  0  0  0  0
  8  9  1  0  0  0  0
  8 26  1  0  0  0  0
  8 27  1  0  0  0  0
  9 10  1  0  0  0  0
  9 19  1  0  0  0  0
 10 11  2  0  0  0  0
 10 12  1  0  0  0  0
 12 13  2  0  0  0  0
 12 17  1  0  0  0  0
 13 14  1  0  0  0  0
 13 28  1  0  0  0  0
 14 15  2  0  0  0  0
 14 29  1  0  0  0  0
 15 16  1  0  0  0  0
 15 30  1  0  0  0  0
 16 17  2  0  0  0  0
 16 31  1  0  0  0  0
 17 18  1  0  0  0  0
 18 19  2  0  0  0  0
M  END
$$$$

 OpenBabel05152416213D

 39 40  0  0  0  0  0  0  0  0999 V2000
    0.7621    0.4725   -0.1488 C   0  0  0  0  0  0  0  0  0  0  0  0
    0.3438   -0.2845   -1.5250 C   0  0  0  0  0  0  0  0  0  0  0  0
    0.8503   -1.7903   -2.0051 C   0  0  0  0  0  0  0  0  0  0  0  0
    0.3000   -2.8085   -1.0893 N   0  0  0  0  0  0  0  0  0  0  0  0
   -0.3849   -4.0218   -1.3177 C   0  0  0  0  0  0  0  0  0  0  0  0
    0.4648   -5.2046   -0.8408 C   0  0  0  0  0  0  0  0  0  0  0  0
    1.2576   -4.7601    0.2305 O   0  0  0  0  0  0  0  0  0  0  0  0
    2.0712   -4.3607    1.3473 C   0  0  0  0  0  0  0  0  0  0  0  0
    2.7070   -4.7379    2.4999 C   0  0  0  0  0  0  0  0  0  0  0  0
    3.2587   -3.6586    3.4006 C   0  0  0  0  0  0  0  0  0  0  0  0
    3.0670   -2.2788    3.1201 C   0  0  0  0  0  0  0  0  0  0  0  0
    2.1769   -2.0510    2.3283 C   0  0  0  0  0  0  0  0  0  0  0  0
    1.7082   -3.0923    1.6637 C   0  0  0  0  0  0  0  0  0  0  0  0
   -1.7238   -2.2068    0.7899 Cl  0  0  0  0  0  0  0  0  0  0  0  0
    3.6241   -0.7553    3.7335 Cl  0  0  0  0  0  0  0  0  0  0  0  0
    2.6557   -6.3411    3.0121 Cl  0  0  0  0  0  0  0  0  0  0  0  0
    0.4120   -2.5250    0.1078 C   0  0  0  0  0  0  0  0  0  0  0  0
    1.3640   -1.6595    0.1670 O   0  0  0  0  0  0  0  0  0  0  0  0
   -0.2834   -3.5992    1.6535 N   0  0  0  0  0  0  0  0  0  0  0  0
   -0.3366   -5.0117    1.9167 C   0  0  0  0  0  0  0  0  0  0  0  0
   -0.3382   -5.3195    3.2056 C   0  0  0  0  0  0  0  0  0  0  0  0
   -0.3370   -4.1964    3.9469 N   0  0  0  0  0  0  0  0  0  0  0  0
   -0.3528   -3.1441    3.0626 C   0  0  0  0  0  0  0  0  0  0  0  0
    0.2177   -0.0334    0.7271 H   0  0  0  0  0  0  0  0  0  0  0  0
    0.4457    1.4012    0.1965 H   0  0  0  0  0  0  0  0  0  0  0  0
    1.9124    0.4192   -0.0401 H   0  0  0  0  0  0  0  0  0  0  0  0
   -0.7459   -0.3730   -1.4235 H   0  0  0  0  0  0  0  0  0  0  0  0
    0.7582    0.3656   -2.2511 H   0  0  0  0  0  0  0  0  0  0  0  0
    0.5189   -2.1228   -2.9223 H   0  0  0  0  0  0  0  0  0  0  0  0
    2.0107   -1.8098   -1.9140 H   0  0  0  0  0  0  0  0  0  0  0  0
   -1.3422   -4.1784   -0.7609 H   0  0  0  0  0  0  0  0  0  0  0  0
   -0.6492   -4.0076   -2.3278 H   0  0  0  0  0  0  0  0  0  0  0  0
   -0.2997   -6.0672   -0.7795 H   0  0  0  0  0  0  0  0  0  0  0  0
    1.2947   -5.4081   -1.3995 H   0  0  0  0  0  0  0  0  0  0  0  0
    3.7288   -3.7661    4.2392 H   0  0  0  0  0  0  0  0  0  0  0  0
    1.7711   -0.9962    2.1476 H   0  0  0  0  0  0  0  0  0  0  0  0
    0.1318   -5.9569    1.4315 H   0  0  0  0  0  0  0  0  0  0  0  0
   -0.1245   -6.3911    3.4282 H   0  0  0  0  0  0  0  0  0  0  0  0
   -0.1841   -2.1335    3.5050 H   0  0  0  0  0  0  0  0  0  0  0  0
  1  2  1  0  0  0  0
  1 24  1  0  0  0  0
  1 25  1  0  0  0  0
  1 26  1  0  0  0  0
  2  3  1  0  0  0  0
  2 27  1  0  0  0  0
  2 28  1  0  0  0  0
  3  4  1  0  0  0  0
  3 29  1  0  0  0  0
  3 30  1  0  0  0  0
  4  5  1  0  0  0  0
  4 17  1  0  0  0  0
  5  6  1  0  0  0  0
  5 31  1  0  0  0  0
  5 32  1  0  0  0  0
  6  7  1  0  0  0  0
  6 33  1  0  0  0  0
  6 34  1  0  0  0  0
  7  8  1  0  0  0  0
  8  9  2  0  0  0  0
  8 13  1  0  0  0  0
  9 10  1  0  0  0  0
  9 16  1  0  0  0  0
 10 11  2  0  0  0  0
 10 35  1  0  0  0  0
 11 12  1  0  0  0  0
 11 15  1  0  0  0  0
 12 13  2  0  0  0  0
 12 36  1  0  0  0  0
 13 14  1  0  0  0  0
 17 18  2  0  0  0  0
 17 19  1  0  0  0  0
 19 20  1  0  0  0  0
 19 23  1  0  0  0  0
 20 21  2  0  0  0  0
 20 37  1  0  0  0  0
 21 22  1  0  0  0  0
 21 38  1  0  0  0  0
 22 23  2  0  0  0  0
 23 39  1  0  0  0  0
M  END
$$$$

 OpenBabel05152416213D

 58 60  0  0  0  0  0  0  0  0999 V2000
    1.0490   -0.0721    0.0645 C   0  0  0  0  0  0  0  0  0  0  0  0
    0.6067    1.3230    0.5251 C   0  0  0  0  0  0  0  0  0  0  0  0
    1.0071    2.3882   -0.4889 C   0  0  0  0  0  0  0  0  0  0  0  0
    0.3988    2.1526   -1.8702 C   0  0  0  0  0  0  0  0  0  0  0  0
   -1.1527    2.1405   -1.9378 C   0  0  0  0  0  0  0  0  0  0  0  0
   -1.9345    1.0738   -1.1867 C   0  0  0  0  0  0  0  0  0  0  0  0
   -1.7860   -0.1301   -1.3123 O   0  0  0  0  0  0  0  0  0  0  0  0
   -3.0094    1.6371   -0.5850 N   0  0  0  0  0  0  0  0  0  0  0  0
   -2.9152    2.9987   -0.6366 N   0  0  0  0  0  0  0  0  0  0  0  0
   -1.7941    3.3534   -1.2992 C   0  0  0  0  0  0  0  0  0  0  0  0
   -1.3329    4.4842   -1.3046 O   0  0  0  0  0  0  0  0  0  0  0  0
   -3.7851    3.8934    0.0595 C   0  0  0  0  0  0  0  0  0  0  0  0
   -4.0816    3.6464    1.4072 C   0  0  0  0  0  0  0  0  0  0  0  0
   -5.0119    4.4391    2.0835 C   0  0  0  0  0  0  0  0  0  0  0  0
   -5.6588    5.4813    1.4177 C   0  0  0  0  0  0  0  0  0  0  0  0
   -5.3400    5.7635    0.0863 C   0  0  0  0  0  0  0  0  0  0  0  0
   -4.3920    4.9834   -0.5908 C   0  0  0  0  0  0  0  0  0  0  0  0
   -4.2192    0.8780   -0.4211 C   0  0  0  0  0  0  0  0  0  0  0  0
   -4.2879   -0.2046    0.4652 C   0  0  0  0  0  0  0  0  0  0  0  0
   -5.4233   -1.0285    0.4932 C   0  0  0  0  0  0  0  0  0  0  0  0
   -6.4912   -0.7915   -0.3759 C   0  0  0  0  0  0  0  0  0  0  0  0
   -6.4330    0.2762   -1.2720 C   0  0  0  0  0  0  0  0  0  0  0  0
   -5.3062    1.1130   -1.2952 C   0  0  0  0  0  0  0  0  0  0  0  0
   -1.6227    1.9625   -3.4140 C   0  0  0  0  0  0  0  0  0  0  0  0
   -1.2125    2.9816   -4.2472 O   0  0  0  0  0  0  0  0  0  0  0  0
   -1.5744    4.2859   -4.1855 C   0  0  0  0  0  0  0  0  0  0  0  0
   -2.5467    4.6369   -3.5360 O   0  0  0  0  0  0  0  0  0  0  0  0
   -0.8277    5.3149   -4.9792 C   0  0  0  0  0  0  0  0  0  0  0  0
    0.7087    5.2973   -4.8280 C   0  0  0  0  0  0  0  0  0  0  0  0
    1.3509    4.0329   -5.3668 C   0  0  0  0  0  0  0  0  0  0  0  0
    2.0616    4.0845   -6.3575 O   0  0  0  0  0  0  0  0  0  0  0  0
    1.1535    2.8471   -4.7598 O   0  0  0  0  0  0  0  0  0  0  0  0
    0.6648   -0.3576   -0.9357 H   0  0  0  0  0  0  0  0  0  0  0  0
    0.6709   -0.8349    0.7685 H   0  0  0  0  0  0  0  0  0  0  0  0
    2.1552   -0.0982    0.0075 H   0  0  0  0  0  0  0  0  0  0  0  0
   -0.4802    1.3716    0.7081 H   0  0  0  0  0  0  0  0  0  0  0  0
    1.0625    1.5607    1.5034 H   0  0  0  0  0  0  0  0  0  0  0  0
    0.6882    3.3870   -0.1262 H   0  0  0  0  0  0  0  0  0  0  0  0
    2.1145    2.4087   -0.5927 H   0  0  0  0  0  0  0  0  0  0  0  0
    0.7659    2.9955   -2.4807 H   0  0  0  0  0  0  0  0  0  0  0  0
    0.8086    1.2337   -2.3467 H   0  0  0  0  0  0  0  0  0  0  0  0
   -3.5827    2.8423    1.9317 H   0  0  0  0  0  0  0  0  0  0  0  0
   -5.2457    4.2324    3.1192 H   0  0  0  0  0  0  0  0  0  0  0  0
   -6.4071    6.0685    1.9351 H   0  0  0  0  0  0  0  0  0  0  0  0
   -5.8462    6.5737   -0.4236 H   0  0  0  0  0  0  0  0  0  0  0  0
   -4.1809    5.2013   -1.6285 H   0  0  0  0  0  0  0  0  0  0  0  0
   -3.4583   -0.4167    1.1235 H   0  0  0  0  0  0  0  0  0  0  0  0
   -5.4695   -1.8688    1.1723 H   0  0  0  0  0  0  0  0  0  0  0  0
   -7.3561   -1.4463   -0.3656 H   0  0  0  0  0  0  0  0  0  0  0  0
   -7.2532    0.4342   -1.9644 H   0  0  0  0  0  0  0  0  0  0  0  0
   -5.2632    1.9020   -2.0365 H   0  0  0  0  0  0  0  0  0  0  0  0
   -1.1939    1.0069   -3.8010 H   0  0  0  0  0  0  0  0  0  0  0  0
   -2.7290    1.8678   -3.4785 H   0  0  0  0  0  0  0  0  0  0  0  0
   -1.0803    5.1648   -6.0451 H   0  0  0  0  0  0  0  0  0  0  0  0
   -1.2008    6.3181   -4.6683 H   0  0  0  0  0  0  0  0  0  0  0  0
    1.0867    6.1534   -5.4307 H   0  0  0  0  0  0  0  0  0  0  0  0
    1.0134    5.4720   -3.7728 H   0  0  0  0  0  0  0  0  0  0  0  0
    1.4620    1.9980   -5.0996 H   0  0  0  0  0  0  0  0  0  0  0  0
  1  2  1  0  0  0  0
  1 33  1  0  0  0  0
  1 34  1  0  0  0  0
  1 35  1  0  0  0  0
  2  3  1  0  0  0  0
  2 36  1  0  0  0  0
  2 37  1  0  0  0  0
  3  4  1  0  0  0  0
  3 38  1  0  0  0  0
  3 39  1  0  0  0  0
  4  5  1  0  0  0  0
  4 40  1  0  0  0  0
  4 41  1  0  0  0  0
  5  6  1  0  0  0  0
  5 10  1  0  0  0  0
  5 24  1  0  0  0  0
  6  7  2  0  0  0  0
  6  8  1  0  0  0  0
  8  9  1  0  0  0  0
  8 18  1  0  0  0  0
  9 10  1  0  0  0  0
  9 12  1  0  0  0  0
 10 11  2  0  0  0  0
 12 13  2  0  0  0  0
 12 17  1  0  0  0  0
 13 14  1  0  0  0  0
 13 42  1  0  0  0  0
 14 15  2  0  0  0  0
 14 43  1  0  0  0  0
 15 16  1  0  0  0  0
 15 44  1  0  0  0  0
 16 17  2  0  0  0  0
 16 45  1  0  0  0  0
 17 46  1  0  0  0  0
 18 19  2  0  0  0  0
 18 23  1  0  0  0  0
 19 20  1  0  0  0  0
 19 47  1  0  0  0  0
 20 21  2  0  0  0  0
 20 48  1  0  0  0  0
 21 22  1  0  0  0  0
 21 49  1  0  0  0  0
 22 23  2  0  0  0  0
 22 50  1  0  0  0  0
 23 51  1  0  0  0  0
 24 25  1  0  0  0  0
 24 52  1  0  0  0  0
 24 53  1  0  0  0  0
 25 26  1  0  0  0  0
 26 27  2  0  0  0  0
 26 28  1  0  0  0  0
 28 29  1  0  0  0  0
 28 54  1  0  0  0  0
 28 55  1  0  0  0  0
 29 30  1  0  0  0  0
 29 56  1  0  0  0  0
 29 57  1  0  0  0  0
 30 31  2  0  0  0  0
 30 32  1  0  0  0  0
 32 58  1  0  0  0  0
M  END
$$$$

 OpenBabel05152416213D

 52 53  0  0  0  0  0  0  0  0999 V2000
    1.3200   -0.1206   -0.0384 C   0  0  0  0  0  0  0  0  0  0  0  0
    0.6761    0.5132   -1.2729 C   0  0  0  0  0  0  0  0  0  0  0  0
    1.0773   -0.3427   -2.4798 C   0  0  0  0  0  0  0  0  0  0  0  0
   -0.8975    0.7062   -1.2391 C   0  0  0  0  0  0  0  0  0  0  0  0
   -1.5355    1.5521   -0.0637 C   0  0  0  0  0  0  0  0  0  0  0  0
   -1.0449    3.0112   -0.0730 C   0  0  0  0  0  0  0  0  0  0  0  0
   -3.0625    1.6017   -0.3173 C   0  0  0  0  0  0  0  0  0  0  0  0
   -1.2683    0.9796    1.3769 C   0  0  0  0  0  0  0  0  0  0  0  0
   -1.6305   -0.3486    1.5311 O   0  0  0  0  0  0  0  0  0  0  0  0
   -2.9296   -0.7330    1.6096 C   0  0  0  0  0  0  0  0  0  0  0  0
   -3.8129    0.0906    1.7814 O   0  0  0  0  0  0  0  0  0  0  0  0
   -3.3332   -2.1187    1.6880 C   0  0  0  0  0  0  0  0  0  0  0  0
   -4.4474   -2.5578    0.9546 C   0  0  0  0  0  0  0  0  0  0  0  0
   -4.9600   -3.8330    1.1778 C   0  0  0  0  0  0  0  0  0  0  0  0
   -4.3715   -4.6545    2.1444 C   0  0  0  0  0  0  0  0  0  0  0  0
   -3.2410   -4.2189    2.8486 C   0  0  0  0  0  0  0  0  0  0  0  0
   -2.7083   -2.9552    2.6053 C   0  0  0  0  0  0  0  0  0  0  0  0
   -1.3628    1.2187   -2.4601 O   0  0  0  0  0  0  0  0  0  0  0  0
   -0.8939    2.3441   -3.0870 C   0  0  0  0  0  0  0  0  0  0  0  0
    0.1040    2.9039   -2.6857 O   0  0  0  0  0  0  0  0  0  0  0  0
   -1.5224    2.8883   -4.2992 C   0  0  0  0  0  0  0  0  0  0  0  0
   -0.6917    3.6425   -5.1448 C   0  0  0  0  0  0  0  0  0  0  0  0
   -1.1845    4.1929   -6.3151 C   0  0  0  0  0  0  0  0  0  0  0  0
   -2.5241    4.0182   -6.6531 C   0  0  0  0  0  0  0  0  0  0  0  0
   -3.3737    3.2852   -5.8117 C   0  0  0  0  0  0  0  0  0  0  0  0
   -2.8734    2.7083   -4.6332 C   0  0  0  0  0  0  0  0  0  0  0  0
    0.8127   -1.0686    0.2390 H   0  0  0  0  0  0  0  0  0  0  0  0
    1.3913    0.5884    0.7887 H   0  0  0  0  0  0  0  0  0  0  0  0
    2.3956   -0.3074   -0.2237 H   0  0  0  0  0  0  0  0  0  0  0  0
    1.1902    1.4796   -1.3778 H   0  0  0  0  0  0  0  0  0  0  0  0
    0.6802   -1.3739   -2.3711 H   0  0  0  0  0  0  0  0  0  0  0  0
    0.7136    0.0961   -3.4303 H   0  0  0  0  0  0  0  0  0  0  0  0
    2.1869   -0.3835   -2.5388 H   0  0  0  0  0  0  0  0  0  0  0  0
   -1.3334   -0.3193   -1.1520 H   0  0  0  0  0  0  0  0  0  0  0  0
   -1.4546    3.5614   -0.9438 H   0  0  0  0  0  0  0  0  0  0  0  0
   -1.4127    3.5617    0.8133 H   0  0  0  0  0  0  0  0  0  0  0  0
    0.0628    3.0552   -0.0834 H   0  0  0  0  0  0  0  0  0  0  0  0
   -3.4776    0.5829   -0.4618 H   0  0  0  0  0  0  0  0  0  0  0  0
   -3.5616    2.1340    0.5209 H   0  0  0  0  0  0  0  0  0  0  0  0
   -3.3286    2.1314   -1.2506 H   0  0  0  0  0  0  0  0  0  0  0  0
   -0.2447    1.1177    1.7191 H   0  0  0  0  0  0  0  0  0  0  0  0
   -1.7954    1.5889    2.1378 H   0  0  0  0  0  0  0  0  0  0  0  0
   -4.9222   -1.9072    0.2248 H   0  0  0  0  0  0  0  0  0  0  0  0
   -5.8310   -4.1666    0.6281 H   0  0  0  0  0  0  0  0  0  0  0  0
   -4.7978   -5.6230    2.3563 H   0  0  0  0  0  0  0  0  0  0  0  0
   -2.7944   -4.8414    3.6086 H   0  0  0  0  0  0  0  0  0  0  0  0
   -1.8647   -2.5958    3.1823 H   0  0  0  0  0  0  0  0  0  0  0  0
    0.3544    3.7839   -4.9044 H   0  0  0  0  0  0  0  0  0  0  0  0
   -0.5131    4.7531   -6.9512 H   0  0  0  0  0  0  0  0  0  0  0  0
   -2.8974    4.4555   -7.5674 H   0  0  0  0  0  0  0  0  0  0  0  0
   -4.4158    3.1691   -6.0773 H   0  0  0  0  0  0  0  0  0  0  0  0
   -3.5438    2.1546   -3.9834 H   0  0  0  0  0  0  0  0  0  0  0  0
  1  2  1  0  0  0  0
  1 27  1  0  0  0  0
  1 28  1  0  0  0  0
  1 29  1  0  0  0  0
  2  3  1  0  0  0  0
  2  4  1  0  0  0  0
  2 30  1  0  0  0  0
  3 31  1  0  0  0  0
  3 32  1  0  0  0  0
  3 33  1  0  0  0  0
  4  5  1  0  0  0  0
  4 18  1  0  0  0  0
  4 34  1  0  0  0  0
  5  6  1  0  0  0  0
  5  7  1  0  0  0  0
  5  8  1  0  0  0  0
  6 35  1  0  0  0  0
  6 36  1  0  0  0  0
  6 37  1  0  0  0  0
  7 38  1  0  0  0  0
  7 39  1  0  0  0  0
  7 40  1  0  0  0  0
  8  9  1  0  0  0  0
  8 41  1  0  0  0  0
  8 42  1  0  0  0  0
  9 10  1  0  0  0  0
 10 11  2  0  0  0  0
 10 12  1  0  0  0  0
 12 13  2  0  0  0  0
 12 17  1  0  0  0  0
 13 14  1  0  0  0  0
 13 43  1  0  0  0  0
 14 15  2  0  0  0  0
 14 44  1  0  0  0  0
 15 16  1  0  0  0  0
 15 45  1  0  0  0  0
 16 17  2  0  0  0  0
 16 46  1  0  0  0  0
 17 47  1  0  0  0  0
 18 19  1  0  0  0  0
 19 20  2  0  0  0  0
 19 21  1  0  0  0  0
 21 22  2  0  0  0  0
 21 26  1  0  0  0  0
 22 23  1  0  0  0  0
 22 48  1  0  0  0  0
 23 24  2  0  0  0  0
 23 49  1  0  0  0  0
 24 25  1  0  0  0  0
 24 50  1  0  0  0  0
 25 26  2  0  0  0  0
 25 51  1  0  0  0  0
 26 52  1  0  0  0  0
M  END
$$$$

 OpenBabel05152416213D

 36 37  0  0  0  0  0  0  0  0999 V2000
    0.7003    0.1883    0.0529 C   0  0  0  0  0  0  0  0  0  0  0  0
    0.3918    0.6909   -1.3826 C   0  0  0  0  0  0  0  0  0  0  0  0
    0.8883   -0.1170   -2.4571 O   0  0  0  0  0  0  0  0  0  0  0  0
    2.6183   -0.1170   -2.4571 P   0  0  0  0  0  0  0  0  0  0  0  0
    2.8526   -1.3388   -1.1846 S   0  0  0  0  0  0  0  0  0  0  0  0
    2.5952   -1.4806   -3.6157 O   0  0  0  0  0  0  0  0  0  0  0  0
    1.2987   -1.9443   -4.0097 C   0  0  0  0  0  0  0  0  0  0  0  0
    0.5167   -2.6682   -2.8592 C   0  0  0  0  0  0  0  0  0  0  0  0
    4.7383   -0.1170   -2.4571 S   0  0  0  0  0  0  0  0  0  0  0  0
    5.2427   -0.0678   -4.2057 C   0  0  0  0  0  0  0  0  0  0  0  0
    4.8898   -1.2941   -4.9068 N   0  0  0  0  0  0  0  0  0  0  0  0
    4.1305   -1.4369   -6.0094 C   0  0  0  0  0  0  0  0  0  0  0  0
    4.0709   -2.7668   -6.3234 C   0  0  0  0  0  0  0  0  0  0  0  0
    3.3565   -3.2282   -7.4241 C   0  0  0  0  0  0  0  0  0  0  0  0
    2.6823   -2.2742   -8.2123 C   0  0  0  0  0  0  0  0  0  0  0  0
    2.7343   -0.9011   -7.8775 C   0  0  0  0  0  0  0  0  0  0  0  0
    3.4677   -0.4653   -6.7601 C   0  0  0  0  0  0  0  0  0  0  0  0
    1.7720   -2.7899   -9.6183 Cl  0  0  0  0  0  0  0  0  0  0  0  0
    4.7656   -3.4625   -5.4469 O   0  0  0  0  0  0  0  0  0  0  0  0
    5.2527   -2.5764   -4.6021 C   0  0  0  0  0  0  0  0  0  0  0  0
    5.9519   -2.8724   -3.6428 O   0  0  0  0  0  0  0  0  0  0  0  0
    0.4604   -0.8949    0.1563 H   0  0  0  0  0  0  0  0  0  0  0  0
    0.1357    0.7426    0.8241 H   0  0  0  0  0  0  0  0  0  0  0  0
    1.7613    0.3764    0.3217 H   0  0  0  0  0  0  0  0  0  0  0  0
   -0.7133    0.6731   -1.4653 H   0  0  0  0  0  0  0  0  0  0  0  0
    0.7171    1.7472   -1.4856 H   0  0  0  0  0  0  0  0  0  0  0  0
    0.7336   -1.1010   -4.4752 H   0  0  0  0  0  0  0  0  0  0  0  0
    1.4051   -2.6615   -4.8429 H   0  0  0  0  0  0  0  0  0  0  0  0
    0.3583   -2.1421   -1.8954 H   0  0  0  0  0  0  0  0  0  0  0  0
   -0.5226   -2.8657   -3.1842 H   0  0  0  0  0  0  0  0  0  0  0  0
    1.0668   -3.5679   -2.5408 H   0  0  0  0  0  0  0  0  0  0  0  0
    4.8630    0.8475   -4.6962 H   0  0  0  0  0  0  0  0  0  0  0  0
    6.3536    0.0046   -4.2028 H   0  0  0  0  0  0  0  0  0  0  0  0
    3.3227   -4.2823   -7.6640 H   0  0  0  0  0  0  0  0  0  0  0  0
    2.2080   -0.1755   -8.4836 H   0  0  0  0  0  0  0  0  0  0  0  0
    3.5030    0.5843   -6.5035 H   0  0  0  0  0  0  0  0  0  0  0  0
  1  2  1  0  0  0  0
  1 22  1  0  0  0  0
  1 23  1  0  0  0  0
  1 24  1  0  0  0  0
  2  3  1  0  0  0  0
  2 25  1  0  0  0  0
  2 26  1  0  0  0  0
  3  4  1  0  0  0  0
  4  5  2  0  0  0  0
  4  6  1  0  0  0  0
  4  9  1  0  0  0  0
  6  7  1  0  0  0  0
  7  8  1  0  0  0  0
  7 27  1  0  0  0  0
  7 28  1  0  0  0  0
  8 29  1  0  0  0  0
  8 30  1  0  0  0  0
  8 31  1  0  0  0  0
  9 10  1  0  0  0  0
 10 11  1  0  0  0  0
 10 32  1  0  0  0  0
 10 33  1  0  0  0  0
 11 12  1  0  0  0  0
 11 20  1  0  0  0  0
 12 13  2  0  0  0  0
 12 17  1  0  0  0  0
 13 14  1  0  0  0  0
 13 19  1  0  0  0  0
 14 15  2  0  0  0  0
 14 34  1  0  0  0  0
 15 16  1  0  0  0  0
 15 18  1  0  0  0  0
 16 17  2  0  0  0  0
 16 35  1  0  0  0  0
 17 36  1  0  0  0  0
 19 20  1  0  0  0  0
 20 21  2  0  0  0  0
M  END
$$$$

 OpenBabel05152416213D

 16 16  0  0  0  0  0  0  0  0999 V2000
   -0.6847    1.2011   -0.0002 C   0  0  0  0  0  0  0  0  0  0  0  0
    0.7155    1.2033    0.0008 C   0  0  0  0  0  0  0  0  0  0  0  0
    1.4070   -0.0115    0.0006 C   0  0  0  0  0  0  0  0  0  0  0  0
    0.7148   -1.2258    0.0008 C   0  0  0  0  0  0  0  0  0  0  0  0
   -0.6972   -1.2376    0.0006 C   0  0  0  0  0  0  0  0  0  0  0  0
   -1.3934   -0.0075   -0.0007 C   0  0  0  0  0  0  0  0  0  0  0  0
   -3.1529    0.0640   -0.0025 Cl  0  0  0  0  0  0  0  0  0  0  0  0
   -1.4058   -2.4720    0.0021 N   0  0  0  0  0  0  0  0  0  0  0  0
    1.6611   -2.7101    0.0019 Cl  0  0  0  0  0  0  0  0  0  0  0  0
    1.4334    2.4251    0.0024 N   0  0  0  0  0  0  0  0  0  0  0  0
   -1.2259    2.1399   -0.0004 H   0  0  0  0  0  0  0  0  0  0  0  0
    2.4898   -0.0139    0.0008 H   0  0  0  0  0  0  0  0  0  0  0  0
   -0.9105   -3.3740    0.0045 H   0  0  0  0  0  0  0  0  0  0  0  0
   -2.4341   -2.5032    0.0030 H   0  0  0  0  0  0  0  0  0  0  0  0
    2.4642    2.4256    0.0035 H   0  0  0  0  0  0  0  0  0  0  0  0
    0.9396    3.3292    0.0045 H   0  0  0  0  0  0  0  0  0  0  0  0
  1  2  2  0  0  0  0
  1  6  1  0  0  0  0
  1 11  1  0  0  0  0
  2  3  1  0  0  0  0
  2 10  1  0  0  0  0
  3  4  2  0  0  0  0
  3 12  1  0  0  0  0
  4  5  1  0  0  0  0
  4  9  1  0  0  0  0
  5  6  2  0  0  0  0
  5  8  1  0  0  0  0
  6  7  1  0  0  0  0
  8 13  1  0  0  0  0
  8 14  1  0  0  0  0
 10 15  1  0  0  0  0
 10 16  1  0  0  0  0
M  END
$$$$

 OpenBabel05152416213D

 26 27  0  0  0  0  0  0  0  0999 V2000
    1.2727   -0.0535    0.2685 C   0  0  0  0  0  0  0  0  0  0  0  0
    0.5426    1.1689   -0.2476 C   0  0  0  0  0  0  0  0  0  0  0  0
   -0.8790    0.8974    0.2118 C   0  0  0  0  0  0  0  0  0  0  0  0
   -1.0854   -0.6368    0.0214 C   0  0  0  0  0  0  0  0  0  0  0  0
    0.3575   -1.1723   -0.1912 C   0  0  0  0  0  0  0  0  0  0  0  0
   -2.0580   -1.0951   -1.0834 C   0  0  0  0  0  0  0  0  0  0  0  0
   -2.3033   -2.4779   -1.3321 C   0  0  0  0  0  0  0  0  0  0  0  0
   -3.2005   -2.8687   -2.3327 C   0  0  0  0  0  0  0  0  0  0  0  0
   -3.8863   -1.9194   -3.0884 C   0  0  0  0  0  0  0  0  0  0  0  0
   -3.6715   -0.5672   -2.8580 C   0  0  0  0  0  0  0  0  0  0  0  0
   -2.7684   -0.1574   -1.8804 C   0  0  0  0  0  0  0  0  0  0  0  0
   -4.5443    0.6374   -3.7916 Cl  0  0  0  0  0  0  0  0  0  0  0  0
   -1.7086   -3.4684   -0.6269 O   0  0  0  0  0  0  0  0  0  0  0  0
    1.2988   -0.0262    1.3810 H   0  0  0  0  0  0  0  0  0  0  0  0
    2.3094   -0.1563   -0.1196 H   0  0  0  0  0  0  0  0  0  0  0  0
    0.9480    2.1277    0.1403 H   0  0  0  0  0  0  0  0  0  0  0  0
    0.5768    1.1755   -1.3597 H   0  0  0  0  0  0  0  0  0  0  0  0
   -1.6089    1.6151   -0.1951 H   0  0  0  0  0  0  0  0  0  0  0  0
   -0.9032    1.0900    1.3077 H   0  0  0  0  0  0  0  0  0  0  0  0
   -1.4838   -1.0121    0.9911 H   0  0  0  0  0  0  0  0  0  0  0  0
    0.5295   -1.2971   -1.2836 H   0  0  0  0  0  0  0  0  0  0  0  0
    0.6036   -2.1259    0.3194 H   0  0  0  0  0  0  0  0  0  0  0  0
   -3.3790   -3.9196   -2.5196 H   0  0  0  0  0  0  0  0  0  0  0  0
   -4.5881   -2.2357   -3.8482 H   0  0  0  0  0  0  0  0  0  0  0  0
   -2.6643    0.9032   -1.7733 H   0  0  0  0  0  0  0  0  0  0  0  0
   -1.1329   -3.3336    0.1297 H   0  0  0  0  0  0  0  0  0  0  0  0
  1  2  1  0  0  0  0
  1  5  1  0  0  0  0
  1 14  1  0  0  0  0
  1 15  1  0  0  0  0
  2  3  1  0  0  0  0
  2 16  1  0  0  0  0
  2 17  1  0  0  0  0
  3  4  1  0  0  0  0
  3 18  1  0  0  0  0
  3 19  1  0  0  0  0
  4  5  1  0  0  0  0
  4  6  1  0  0  0  0
  4 20  1  0  0  0  0
  5 21  1  0  0  0  0
  5 22  1  0  0  0  0
  6  7  2  0  0  0  0
  6 11  1  0  0  0  0
  7  8  1  0  0  0  0
  7 13  1  0  0  0  0
  8  9  2  0  0  0  0
  8 23  1  0  0  0  0
  9 10  1  0  0  0  0
  9 24  1  0  0  0  0
 10 11  2  0  0  0  0
 10 12  1  0  0  0  0
 11 25  1  0  0  0  0
 13 26  1  0  0  0  0
M  END
$$$$

 OpenBabel05152416213D

 29 29  0  0  0  0  0  0  0  0999 V2000
    0.9636    0.0733   -0.1719 C   0  0  0  0  0  0  0  0  0  0  0  0
    0.5018   -1.2490   -0.7817 C   0  0  0  0  0  0  0  0  0  0  0  0
    0.9745   -2.4456    0.0553 C   0  0  0  0  0  0  0  0  0  0  0  0
    0.4364   -2.4187    1.5038 C   0  0  0  0  0  0  0  0  0  0  0  0
   -1.1078   -2.4854    1.5641 C   0  0  0  0  0  0  0  0  0  0  0  0
   -1.5735   -3.7481    0.8918 C   0  0  0  0  0  0  0  0  0  0  0  0
   -1.0912   -4.9767    1.3654 C   0  0  0  0  0  0  0  0  0  0  0  0
   -1.4184   -6.1591    0.7243 C   0  0  0  0  0  0  0  0  0  0  0  0
   -2.2585   -6.1479   -0.3935 C   0  0  0  0  0  0  0  0  0  0  0  0
   -2.7712   -4.9254   -0.8631 C   0  0  0  0  0  0  0  0  0  0  0  0
   -2.4267   -3.7265   -0.2278 C   0  0  0  0  0  0  0  0  0  0  0  0
   -2.5760   -7.3621   -1.0374 N   0  0  0  0  0  0  0  0  0  0  0  0
    0.5328    0.2278    0.8381 H   0  0  0  0  0  0  0  0  0  0  0  0
    0.6223    0.9178   -0.7993 H   0  0  0  0  0  0  0  0  0  0  0  0
    2.0718    0.0808   -0.0993 H   0  0  0  0  0  0  0  0  0  0  0  0
   -0.6036   -1.2521   -0.8808 H   0  0  0  0  0  0  0  0  0  0  0  0
    0.9178   -1.3431   -1.8067 H   0  0  0  0  0  0  0  0  0  0  0  0
    0.6552   -3.3846   -0.4510 H   0  0  0  0  0  0  0  0  0  0  0  0
    2.0849   -2.4605    0.0815 H   0  0  0  0  0  0  0  0  0  0  0  0
    0.8786   -3.2780    2.0468 H   0  0  0  0  0  0  0  0  0  0  0  0
    0.7999   -1.5288    2.0509 H   0  0  0  0  0  0  0  0  0  0  0  0
   -1.4377   -2.4816    2.6234 H   0  0  0  0  0  0  0  0  0  0  0  0
   -1.5541   -1.5854    1.0872 H   0  0  0  0  0  0  0  0  0  0  0  0
   -0.4337   -5.0189    2.2223 H   0  0  0  0  0  0  0  0  0  0  0  0
   -1.0054   -7.0866    1.0977 H   0  0  0  0  0  0  0  0  0  0  0  0
   -3.4230   -4.9063   -1.7287 H   0  0  0  0  0  0  0  0  0  0  0  0
   -2.8109   -2.7896   -0.6173 H   0  0  0  0  0  0  0  0  0  0  0  0
   -3.1978   -7.3788   -1.8583 H   0  0  0  0  0  0  0  0  0  0  0  0
   -2.1822   -8.2514   -0.6929 H   0  0  0  0  0  0  0  0  0  0  0  0
  1  2  1  0  0  0  0
  1 13  1  0  0  0  0
  1 14  1  0  0  0  0
  1 15  1  0  0  0  0
  2  3  1  0  0  0  0
  2 16  1  0  0  0  0
  2 17  1  0  0  0  0
  3  4  1  0  0  0  0
  3 18  1  0  0  0  0
  3 19  1  0  0  0  0
  4  5  1  0  0  0  0
  4 20  1  0  0  0  0
  4 21  1  0  0  0  0
  5  6  1  0  0  0  0
  5 22  1  0  0  0  0
  5 23  1  0  0  0  0
  6  7  2  0  0  0  0
  6 11  1  0  0  0  0
  7  8  1  0  0  0  0
  7 24  1  0  0  0  0
  8  9  2  0  0  0  0
  8 25  1  0  0  0  0
  9 10  1  0  0  0  0
  9 12  1  0  0  0  0
 10 11  2  0  0  0  0
 10 26  1  0  0  0  0
 11 27  1  0  0  0  0
 12 28  1  0  0  0  0
 12 29  1  0  0  0  0
M  END
$$$$

 OpenBabel05152416213D

 26 27  0  0  0  0  0  0  0  0999 V2000
   -1.8999    0.0466   -0.0305 C   0  0  0  0  0  0  0  0  0  0  0  0
   -1.2622   -1.1926   -0.0188 C   0  0  0  0  0  0  0  0  0  0  0  0
    0.1253   -1.2598    0.0157 C   0  0  0  0  0  0  0  0  0  0  0  0
    0.8953   -0.0932    0.0417 C   0  0  0  0  0  0  0  0  0  0  0  0
    0.2626    1.1854    0.0109 C   0  0  0  0  0  0  0  0  0  0  0  0
   -1.1481    1.2259   -0.0166 C   0  0  0  0  0  0  0  0  0  0  0  0
    1.0322    2.4761    0.0701 C   0  0  0  0  0  0  0  0  0  0  0  0
    0.4325    3.5241    0.2776 O   0  0  0  0  0  0  0  0  0  0  0  0
    2.5122    2.5149    0.0256 C   0  0  0  0  0  0  0  0  0  0  0  0
    3.2136    3.0932    1.0949 C   0  0  0  0  0  0  0  0  0  0  0  0
    4.6097    3.0539    1.1244 C   0  0  0  0  0  0  0  0  0  0  0  0
    5.3167    2.4590    0.0764 C   0  0  0  0  0  0  0  0  0  0  0  0
    4.6305    1.9060   -1.0071 C   0  0  0  0  0  0  0  0  0  0  0  0
    3.2295    1.9293   -1.0409 C   0  0  0  0  0  0  0  0  0  0  0  0
    2.5626    1.3773   -2.0781 O   0  0  0  0  0  0  0  0  0  0  0  0
    2.2337   -0.2166    0.1211 O   0  0  0  0  0  0  0  0  0  0  0  0
   -2.9807    0.0910   -0.0457 H   0  0  0  0  0  0  0  0  0  0  0  0
   -1.8410   -2.1061   -0.0263 H   0  0  0  0  0  0  0  0  0  0  0  0
    0.6149   -2.2254    0.0382 H   0  0  0  0  0  0  0  0  0  0  0  0
   -1.6776    2.1715   -0.0208 H   0  0  0  0  0  0  0  0  0  0  0  0
    2.6778    3.5317    1.9291 H   0  0  0  0  0  0  0  0  0  0  0  0
    5.1439    3.4703    1.9684 H   0  0  0  0  0  0  0  0  0  0  0  0
    6.3974    2.4221    0.1060 H   0  0  0  0  0  0  0  0  0  0  0  0
    5.1858    1.4454   -1.8142 H   0  0  0  0  0  0  0  0  0  0  0  0
    3.0126    0.9131   -2.7978 H   0  0  0  0  0  0  0  0  0  0  0  0
    2.6977   -1.0641    0.0823 H   0  0  0  0  0  0  0  0  0  0  0  0
  1  2  2  0  0  0  0
  1  6  1  0  0  0  0
  1 17  1  0  0  0  0
  2  3  1  0  0  0  0
  2 18  1  0  0  0  0
  3  4  2  0  0  0  0
  3 19  1  0  0  0  0
  4  5  1  0  0  0  0
  4 16  1  0  0  0  0
  5  6  2  0  0  0  0
  5  7  1  0  0  0  0
  6 20  1  0  0  0  0
  7  8  2  0  0  0  0
  7  9  1  0  0  0  0
  9 10  2  0  0  0  0
  9 14  1  0  0  0  0
 10 11  1  0  0  0  0
 10 21  1  0  0  0  0
 11 12  2  0  0  0  0
 11 22  1  0  0  0  0
 12 13  1  0  0  0  0
 12 23  1  0  0  0  0
 13 14  2  0  0  0  0
 13 24  1  0  0  0  0
 14 15  1  0  0  0  0
 15 25  1  0  0  0  0
 16 26  1  0  0  0  0
M  END
$$$$

 OpenBabel05152416213D

 16 16  0  0  0  0  0  0  0  0999 V2000
    0.6676   -1.2382    0.2611 C   0  0  0  0  0  0  0  0  0  0  0  0
   -0.7820   -1.1722   -0.2475 C   0  0  0  0  0  0  0  0  0  0  0  0
   -1.4300    0.0684    0.1992 N   0  0  0  0  0  0  0  0  0  0  0  0
   -0.6679    1.2375   -0.2601 C   0  0  0  0  0  0  0  0  0  0  0  0
    0.7815    1.1715    0.2487 C   0  0  0  0  0  0  0  0  0  0  0  0
    1.4296   -0.0690   -0.1982 N   0  0  0  0  0  0  0  0  0  0  0  0
    0.6734   -1.2720    1.3731 H   0  0  0  0  0  0  0  0  0  0  0  0
    1.1512   -2.1673   -0.1097 H   0  0  0  0  0  0  0  0  0  0  0  0
   -1.3510   -2.0476    0.1327 H   0  0  0  0  0  0  0  0  0  0  0  0
   -0.7915   -1.2170   -1.3591 H   0  0  0  0  0  0  0  0  0  0  0  0
   -1.4806    0.0763    1.2455 H   0  0  0  0  0  0  0  0  0  0  0  0
   -0.6735    1.2713   -1.3721 H   0  0  0  0  0  0  0  0  0  0  0  0
   -1.1516    2.1667    0.1106 H   0  0  0  0  0  0  0  0  0  0  0  0
    0.7908    1.2160    1.3604 H   0  0  0  0  0  0  0  0  0  0  0  0
    1.3506    2.0470   -0.1311 H   0  0  0  0  0  0  0  0  0  0  0  0
    1.4800   -0.0767   -1.2445 H   0  0  0  0  0  0  0  0  0  0  0  0
  1  2  1  0  0  0  0
  1  6  1  0  0  0  0
  1  7  1  0  0  0  0
  1  8  1  0  0  0  0
  2  3  1  0  0  0  0
  2  9  1  0  0  0  0
  2 10  1  0  0  0  0
  3  4  1  0  0  0  0
  3 11  1  0  0  0  0
  4  5  1  0  0  0  0
  4 12  1  0  0  0  0
  4 13  1  0  0  0  0
  5  6  1  0  0  0  0
  5 14  1  0  0  0  0
  5 15  1  0  0  0  0
  6 16  1  0  0  0  0
M  END
$$$$

 OpenBabel05152416213D

 27 28  0  0  0  0  0  0  0  0999 V2000
    2.4976    0.0289   -0.0119 C   0  0  0  0  0  0  0  0  0  0  0  0
    0.9993    0.0369    0.0064 C   0  0  0  0  0  0  0  0  0  0  0  0
    0.3145   -1.1795    0.0016 C   0  0  0  0  0  0  0  0  0  0  0  0
   -1.0938   -1.2237    0.0097 C   0  0  0  0  0  0  0  0  0  0  0  0
   -1.8056   -0.0099    0.0053 C   0  0  0  0  0  0  0  0  0  0  0  0
   -1.1215    1.2109    0.0134 C   0  0  0  0  0  0  0  0  0  0  0  0
    0.2756    1.2366    0.0160 C   0  0  0  0  0  0  0  0  0  0  0  0
   -1.8041   -2.4619   -0.0497 N   0  0  0  0  0  0  0  0  0  0  0  0
   -1.1601   -3.7306    0.0521 C   0  0  0  0  0  0  0  0  0  0  0  0
   -1.4087   -4.7191   -0.9107 C   0  0  0  0  0  0  0  0  0  0  0  0
   -0.7685   -5.9615   -0.8212 C   0  0  0  0  0  0  0  0  0  0  0  0
    0.1002   -6.2277    0.2414 C   0  0  0  0  0  0  0  0  0  0  0  0
    0.3411   -5.2508    1.2098 C   0  0  0  0  0  0  0  0  0  0  0  0
   -0.2815   -4.0045    1.1133 C   0  0  0  0  0  0  0  0  0  0  0  0
    2.8753   -0.5132    0.8812 H   0  0  0  0  0  0  0  0  0  0  0  0
    2.8536   -0.4930   -0.9262 H   0  0  0  0  0  0  0  0  0  0  0  0
    2.9104    1.0583   -0.0063 H   0  0  0  0  0  0  0  0  0  0  0  0
    0.9019   -2.0853   -0.0347 H   0  0  0  0  0  0  0  0  0  0  0  0
   -2.8882   -0.0098   -0.0075 H   0  0  0  0  0  0  0  0  0  0  0  0
   -1.6746    2.1416    0.0102 H   0  0  0  0  0  0  0  0  0  0  0  0
    0.7925    2.1874    0.0153 H   0  0  0  0  0  0  0  0  0  0  0  0
   -2.7989   -2.4449   -0.3161 H   0  0  0  0  0  0  0  0  0  0  0  0
   -2.0691   -4.5169   -1.7445 H   0  0  0  0  0  0  0  0  0  0  0  0
   -0.9447   -6.7170   -1.5758 H   0  0  0  0  0  0  0  0  0  0  0  0
    0.5873   -7.1912    0.3160 H   0  0  0  0  0  0  0  0  0  0  0  0
    1.0087   -5.4553    2.0362 H   0  0  0  0  0  0  0  0  0  0  0  0
   -0.0931   -3.2576    1.8742 H   0  0  0  0  0  0  0  0  0  0  0  0
  1  2  1  0  0  0  0
  1 15  1  0  0  0  0
  1 16  1  0  0  0  0
  1 17  1  0  0  0  0
  2  3  2  0  0  0  0
  2  7  1  0  0  0  0
  3  4  1  0  0  0  0
  3 18  1  0  0  0  0
  4  5  2  0  0  0  0
  4  8  1  0  0  0  0
  5  6  1  0  0  0  0
  5 19  1  0  0  0  0
  6  7  2  0  0  0  0
  6 20  1  0  0  0  0
  7 21  1  0  0  0  0
  8  9  1  0  0  0  0
  8 22  1  0  0  0  0
  9 10  2  0  0  0  0
  9 14  1  0  0  0  0
 10 11  1  0  0  0  0
 10 23  1  0  0  0  0
 11 12  2  0  0  0  0
 11 24  1  0  0  0  0
 12 13  1  0  0  0  0
 12 25  1  0  0  0  0
 13 14  2  0  0  0  0
 13 26  1  0  0  0  0
 14 27  1  0  0  0  0
M  END
$$$$

 OpenBabel05152416213D

 36 38  0  0  0  0  0  0  0  0999 V2000
    1.0823   -0.0607   -0.0903 C   0  0  0  0  0  0  0  0  0  0  0  0
    0.5637    1.3543   -0.2202 C   0  0  0  0  0  0  0  0  0  0  0  0
    1.0038    2.0419   -1.5465 C   0  0  0  0  0  0  0  0  0  0  0  0
    1.5033    3.4505   -1.3607 C   0  0  0  0  0  0  0  0  0  0  0  0
    0.3803    4.2805   -1.4823 O   0  0  0  0  0  0  0  0  0  0  0  0
   -0.6288    3.4945   -2.1105 C   0  0  0  0  0  0  0  0  0  0  0  0
   -0.0996    2.1966   -2.4044 O   0  0  0  0  0  0  0  0  0  0  0  0
   -1.7930    3.4237   -1.0952 C   0  0  0  0  0  0  0  0  0  0  0  0
   -2.3462    4.7364   -0.6135 N   0  0  0  0  0  0  0  0  0  0  0  0
   -2.7421    5.8966   -1.2341 C   0  0  0  0  0  0  0  0  0  0  0  0
   -3.2520    6.7675   -0.3564 N   0  0  0  0  0  0  0  0  0  0  0  0
   -3.1451    6.1299    0.8107 C   0  0  0  0  0  0  0  0  0  0  0  0
   -2.5913    4.9092    0.6638 N   0  0  0  0  0  0  0  0  0  0  0  0
   -1.1190    4.1736   -3.4169 C   0  0  0  0  0  0  0  0  0  0  0  0
   -2.5034    4.4537   -3.7543 C   0  0  0  0  0  0  0  0  0  0  0  0
   -2.7869    5.3994   -4.7281 C   0  0  0  0  0  0  0  0  0  0  0  0
   -1.7925    5.9406   -5.5139 C   0  0  0  0  0  0  0  0  0  0  0  0
   -0.4774    5.5065   -5.3639 C   0  0  0  0  0  0  0  0  0  0  0  0
   -0.1345    4.6490   -4.3100 C   0  0  0  0  0  0  0  0  0  0  0  0
   -2.2292    7.1565   -6.6947 Cl  0  0  0  0  0  0  0  0  0  0  0  0
   -4.0180    3.8623   -3.0133 Cl  0  0  0  0  0  0  0  0  0  0  0  0
    0.7065   -0.6697   -0.9389 H   0  0  0  0  0  0  0  0  0  0  0  0
    0.6990   -0.4879    0.8627 H   0  0  0  0  0  0  0  0  0  0  0  0
    2.1901   -0.0577   -0.0720 H   0  0  0  0  0  0  0  0  0  0  0  0
   -0.5243    1.2008   -0.1896 H   0  0  0  0  0  0  0  0  0  0  0  0
    0.8962    1.9330    0.6706 H   0  0  0  0  0  0  0  0  0  0  0  0
    1.8370    1.4548   -2.0026 H   0  0  0  0  0  0  0  0  0  0  0  0
    2.2062    3.7139   -2.1821 H   0  0  0  0  0  0  0  0  0  0  0  0
    2.0553    3.5767   -0.3993 H   0  0  0  0  0  0  0  0  0  0  0  0
   -2.5339    2.7234   -1.5055 H   0  0  0  0  0  0  0  0  0  0  0  0
   -1.5097    2.9178   -0.1722 H   0  0  0  0  0  0  0  0  0  0  0  0
   -2.7105    6.1849   -2.2559 H   0  0  0  0  0  0  0  0  0  0  0  0
   -3.4727    6.5465    1.7425 H   0  0  0  0  0  0  0  0  0  0  0  0
   -3.8103    5.7387   -4.8438 H   0  0  0  0  0  0  0  0  0  0  0  0
    0.2848    5.8868   -6.0270 H   0  0  0  0  0  0  0  0  0  0  0  0
    0.9106    4.4027   -4.1675 H   0  0  0  0  0  0  0  0  0  0  0  0
  1  2  1  0  0  0  0
  1 22  1  0  0  0  0
  1 23  1  0  0  0  0
  1 24  1  0  0  0  0
  2  3  1  0  0  0  0
  2 25  1  0  0  0  0
  2 26  1  0  0  0  0
  3  4  1  0  0  0  0
  3  7  1  0  0  0  0
  3 27  1  0  0  0  0
  4  5  1  0  0  0  0
  4 28  1  0  0  0  0
  4 29  1  0  0  0  0
  5  6  1  0  0  0  0
  6  7  1  0  0  0  0
  6  8  1  0  0  0  0
  6 14  1  0  0  0  0
  8  9  1  0  0  0  0
  8 30  1  0  0  0  0
  8 31  1  0  0  0  0
  9 10  1  0  0  0  0
  9 13  1  0  0  0  0
 10 11  2  0  0  0  0
 10 32  1  0  0  0  0
 11 12  1  0  0  0  0
 12 13  2  0  0  0  0
 12 33  1  0  0  0  0
 14 15  2  0  0  0  0
 14 19  1  0  0  0  0
 15 16  1  0  0  0  0
 15 21  1  0  0  0  0
 16 17  2  0  0  0  0
 16 34  1  0  0  0  0
 17 18  1  0  0  0  0
 17 20  1  0  0  0  0
 18 19  2  0  0  0  0
 18 35  1  0  0  0  0
 19 36  1  0  0  0  0
M  END
$$$$

 OpenBabel05152416213D

 37 38  0  0  0  0  0  0  0  0999 V2000
    1.2568   -0.0801   -0.1167 C   0  0  0  0  0  0  0  0  0  0  0  0
    0.8832   -1.5459    0.1081 C   0  0  0  0  0  0  0  0  0  0  0  0
    1.1774   -2.0074    1.5387 C   0  0  0  0  0  0  0  0  0  0  0  0
    0.5273   -1.1327    2.6511 C   0  0  0  0  0  0  0  0  0  0  0  0
   -1.0346   -1.1709    2.7133 C   0  0  0  0  0  0  0  0  0  0  0  0
   -1.5456   -2.6126    3.0077 C   0  0  0  0  0  0  0  0  0  0  0  0
   -1.1077   -3.1589    4.3019 N   0  0  0  0  0  0  0  0  0  0  0  0
   -0.5221   -2.5705    5.3704 C   0  0  0  0  0  0  0  0  0  0  0  0
   -0.2950   -3.4500    6.3523 N   0  0  0  0  0  0  0  0  0  0  0  0
   -0.7640   -4.6012    5.8408 C   0  0  0  0  0  0  0  0  0  0  0  0
   -1.2683   -4.4434    4.6066 N   0  0  0  0  0  0  0  0  0  0  0  0
   -1.5413   -0.2978    3.8496 C   0  0  0  0  0  0  0  0  0  0  0  0
   -1.9616    0.4266    4.7923 N   0  0  0  0  0  0  0  0  0  0  0  0
   -1.6580   -0.5799    1.4321 C   0  0  0  0  0  0  0  0  0  0  0  0
   -1.4893    0.7887    1.1420 C   0  0  0  0  0  0  0  0  0  0  0  0
   -1.8526    1.3071   -0.1009 C   0  0  0  0  0  0  0  0  0  0  0  0
   -2.3957    0.4718   -1.0778 C   0  0  0  0  0  0  0  0  0  0  0  0
   -2.6514   -0.8674   -0.7851 C   0  0  0  0  0  0  0  0  0  0  0  0
   -2.3310   -1.3867    0.4708 C   0  0  0  0  0  0  0  0  0  0  0  0
   -2.7181    1.0943   -2.6836 Cl  0  0  0  0  0  0  0  0  0  0  0  0
    0.8785    0.6075    0.6533 H   0  0  0  0  0  0  0  0  0  0  0  0
    0.8213    0.2741   -1.0717 H   0  0  0  0  0  0  0  0  0  0  0  0
    2.3518    0.0213   -0.0864 H   0  0  0  0  0  0  0  0  0  0  0  0
   -0.1470   -1.7140   -0.1245 H   0  0  0  0  0  0  0  0  0  0  0  0
    1.3650   -2.1950   -0.6431 H   0  0  0  0  0  0  0  0  0  0  0  0
    0.8614   -3.0675    1.6483 H   0  0  0  0  0  0  0  0  0  0  0  0
    2.2751   -1.9947    1.6756 H   0  0  0  0  0  0  0  0  0  0  0  0
    0.9419   -1.5307    3.5951 H   0  0  0  0  0  0  0  0  0  0  0  0
    0.8972   -0.0923    2.6297 H   0  0  0  0  0  0  0  0  0  0  0  0
   -2.6585   -2.6383    2.9841 H   0  0  0  0  0  0  0  0  0  0  0  0
   -1.2049   -3.2940    2.2043 H   0  0  0  0  0  0  0  0  0  0  0  0
   -0.2577   -1.5279    5.4766 H   0  0  0  0  0  0  0  0  0  0  0  0
   -0.7332   -5.5409    6.3675 H   0  0  0  0  0  0  0  0  0  0  0  0
   -1.0108    1.4449    1.8587 H   0  0  0  0  0  0  0  0  0  0  0  0
   -1.6556    2.3476   -0.3190 H   0  0  0  0  0  0  0  0  0  0  0  0
   -3.0491   -1.5269   -1.5469 H   0  0  0  0  0  0  0  0  0  0  0  0
   -2.4955   -2.4451    0.6122 H   0  0  0  0  0  0  0  0  0  0  0  0
  1  2  1  0  0  0  0
  1 21  1  0  0  0  0
  1 22  1  0  0  0  0
  1 23  1  0  0  0  0
  2  3  1  0  0  0  0
  2 24  1  0  0  0  0
  2 25  1  0  0  0  0
  3  4  1  0  0  0  0
  3 26  1  0  0  0  0
  3 27  1  0  0  0  0
  4  5  1  0  0  0  0
  4 28  1  0  0  0  0
  4 29  1  0  0  0  0
  5  6  1  0  0  0  0
  5 12  1  0  0  0  0
  5 14  1  0  0  0  0
  6  7  1  0  0  0  0
  6 30  1  0  0  0  0
  6 31  1  0  0  0  0
  7  8  1  0  0  0  0
  7 11  1  0  0  0  0
  8  9  2  0  0  0  0
  8 32  1  0  0  0  0
  9 10  1  0  0  0  0
 10 11  2  0  0  0  0
 10 33  1  0  0  0  0
 12 13  3  0  0  0  0
 14 15  2  0  0  0  0
 14 19  1  0  0  0  0
 15 16  1  0  0  0  0
 15 34  1  0  0  0  0
 16 17  2  0  0  0  0
 16 35  1  0  0  0  0
 17 18  1  0  0  0  0
 17 20  1  0  0  0  0
 18 19  2  0  0  0  0
 18 36  1  0  0  0  0
 19 37  1  0  0  0  0
M  END
$$$$

 OpenBabel05152416213D

 41 41  0  0  0  0  0  0  0  0999 V2000
    0.8290    0.1510   -0.9236 C   0  0  0  0  0  0  0  0  0  0  0  0
    0.4287    1.4280   -1.4462 C   0  0  0  0  0  0  0  0  0  0  0  0
    0.8530    2.4880   -0.4140 C   0  0  0  0  0  0  0  0  0  0  0  0
    0.7756    3.7294   -1.0804 C   0  0  0  0  0  0  0  0  0  0  0  0
    1.2694    4.8755   -0.5446 C   0  0  0  0  0  0  0  0  0  0  0  0
    1.8780    4.8233    0.6749 C   0  0  0  0  0  0  0  0  0  0  0  0
    1.9790    3.6419    1.4721 C   0  0  0  0  0  0  0  0  0  0  0  0
    1.3940    2.3170    0.9908 C   0  0  0  0  0  0  0  0  0  0  0  0
    1.6083    0.9583    1.7636 N   0  0  0  0  0  0  0  0  0  0  0  0
    2.4610    0.9697    2.9172 C   0  0  0  0  0  0  0  0  0  0  0  0
    1.6235    0.7327    4.2003 C   0  0  0  0  0  0  0  0  0  0  0  0
    3.8546    0.3317    2.8274 C   0  0  0  0  0  0  0  0  0  0  0  0
    4.7163    0.9076    1.8433 O   0  0  0  0  0  0  0  0  0  0  0  0
    4.2325    0.7576    0.5253 C   0  0  0  0  0  0  0  0  0  0  0  0
    0.8975   -0.3094    1.7364 C   0  0  0  0  0  0  0  0  0  0  0  0
   -0.3019   -0.3514    1.6255 O   0  0  0  0  0  0  0  0  0  0  0  0
    1.4744   -1.7187    2.1163 C   0  0  0  0  0  0  0  0  0  0  0  0
    2.9833   -2.4742    1.4854 Cl  0  0  0  0  0  0  0  0  0  0  0  0
    2.7721    4.0877    2.7338 C   0  0  0  0  0  0  0  0  0  0  0  0
    0.6730   -0.8697   -1.2657 H   0  0  0  0  0  0  0  0  0  0  0  0
    0.0256    0.2823   -0.2628 H   0  0  0  0  0  0  0  0  0  0  0  0
    1.8927    0.2447   -0.6138 H   0  0  0  0  0  0  0  0  0  0  0  0
   -0.6728    1.5173   -1.6819 H   0  0  0  0  0  0  0  0  0  0  0  0
    0.9813    1.4873   -2.4043 H   0  0  0  0  0  0  0  0  0  0  0  0
    0.3666    3.8092   -2.0877 H   0  0  0  0  0  0  0  0  0  0  0  0
    1.2173    5.8056   -1.1113 H   0  0  0  0  0  0  0  0  0  0  0  0
    2.3060    5.7711    1.0083 H   0  0  0  0  0  0  0  0  0  0  0  0
    2.7918    1.8752    3.0244 H   0  0  0  0  0  0  0  0  0  0  0  0
    1.1961   -0.2806    4.2597 H   0  0  0  0  0  0  0  0  0  0  0  0
    2.2070    0.9037    5.1172 H   0  0  0  0  0  0  0  0  0  0  0  0
    0.7510    1.4332    4.1698 H   0  0  0  0  0  0  0  0  0  0  0  0
    4.3494    0.5318    3.8025 H   0  0  0  0  0  0  0  0  0  0  0  0
    3.8481   -0.7323    2.8253 H   0  0  0  0  0  0  0  0  0  0  0  0
    3.8967   -0.2728    0.2996 H   0  0  0  0  0  0  0  0  0  0  0  0
    3.4937    1.5207    0.3056 H   0  0  0  0  0  0  0  0  0  0  0  0
    4.9982    1.0459   -0.2165 H   0  0  0  0  0  0  0  0  0  0  0  0
    1.0905   -2.0965    3.0827 H   0  0  0  0  0  0  0  0  0  0  0  0
    0.9216   -2.3814    1.4155 H   0  0  0  0  0  0  0  0  0  0  0  0
    3.7935    4.3941    2.3927 H   0  0  0  0  0  0  0  0  0  0  0  0
    2.2019    4.8967    3.2134 H   0  0  0  0  0  0  0  0  0  0  0  0
    3.0415    3.5884    3.6783 H   0  0  0  0  0  0  0  0  0  0  0  0
  1  2  1  0  0  0  0
  1 20  1  0  0  0  0
  1 21  1  0  0  0  0
  1 22  1  0  0  0  0
  2  3  1  0  0  0  0
  2 23  1  0  0  0  0
  2 24  1  0  0  0  0
  3  4  2  0  0  0  0
  3  8  1  0  0  0  0
  4  5  1  0  0  0  0
  4 25  1  0  0  0  0
  5  6  2  0  0  0  0
  5 26  1  0  0  0  0
  6  7  1  0  0  0  0
  6 27  1  0  0  0  0
  7  8  2  0  0  0  0
  7 19  1  0  0  0  0
  8  9  1  0  0  0  0
  9 10  1  0  0  0  0
  9 15  1  0  0  0  0
 10 11  1  0  0  0  0
 10 12  1  0  0  0  0
 10 28  1  0  0  0  0
 11 29  1  0  0  0  0
 11 30  1  0  0  0  0
 11 31  1  0  0  0  0
 12 13  1  0  0  0  0
 12 32  1  0  0  0  0
 12 33  1  0  0  0  0
 13 14  1  0  0  0  0
 14 34  1  0  0  0  0
 14 35  1  0  0  0  0
 14 36  1  0  0  0  0
 15 16  2  0  0  0  0
 15 17  1  0  0  0  0
 17 18  1  0  0  0  0
 17 37  1  0  0  0  0
 17 38  1  0  0  0  0
 19 39  1  0  0  0  0
 19 40  1  0  0  0  0
 19 41  1  0  0  0  0
M  END
$$$$

 OpenBabel05152416213D

 47 48  0  0  1  0  0  0  0  0999 V2000
    1.3047    0.2381   -0.0616 C   0  0  0  0  0  0  0  0  0  0  0  0
    0.8712    0.3272   -1.5404 C   0  0  0  0  0  0  0  0  0  0  0  0
    1.2394   -0.9454   -2.3138 C   0  0  0  0  0  0  0  0  0  0  0  0
    0.4754   -2.1225   -1.7463 C   0  0  0  0  0  0  0  0  0  0  0  0
   -0.8818   -1.8280   -1.8347 O   0  0  0  0  0  0  0  0  0  0  0  0
   -1.6946   -1.3546   -0.8329 C   0  0  0  0  0  0  0  0  0  0  0  0
   -1.2497   -0.8703    0.1914 O   0  0  0  0  0  0  0  0  0  0  0  0
   -3.1715   -1.4483   -0.9579 C   0  0  1  0  0  0  0  0  0  0  0  0
   -3.6092   -1.2525   -2.4127 C   0  0  0  0  0  0  0  0  0  0  0  0
   -3.6561   -2.6435   -0.4212 O   0  0  0  0  0  0  0  0  0  0  0  0
   -3.3350   -3.8956   -0.8495 C   0  0  0  0  0  0  0  0  0  0  0  0
   -4.3532   -4.8220   -1.0600 C   0  0  0  0  0  0  0  0  0  0  0  0
   -4.0617   -6.0857   -1.6032 C   0  0  0  0  0  0  0  0  0  0  0  0
   -2.7437   -6.4114   -1.9852 C   0  0  0  0  0  0  0  0  0  0  0  0
   -1.7336   -5.4814   -1.7187 C   0  0  0  0  0  0  0  0  0  0  0  0
   -2.0217   -4.2952   -1.1139 C   0  0  0  0  0  0  0  0  0  0  0  0
   -2.4760   -7.5801   -2.6230 O   0  0  0  0  0  0  0  0  0  0  0  0
   -1.2290   -7.9313   -3.0586 C   0  0  0  0  0  0  0  0  0  0  0  0
   -1.0410   -8.1708   -4.3750 N   0  0  0  0  0  0  0  0  0  0  0  0
    0.1970   -8.4261   -4.8908 C   0  0  0  0  0  0  0  0  0  0  0  0
    1.3207   -8.4472   -4.0509 C   0  0  0  0  0  0  0  0  0  0  0  0
    1.1419   -8.2204   -2.6808 C   0  0  0  0  0  0  0  0  0  0  0  0
   -0.1344   -7.9720   -2.1761 C   0  0  0  0  0  0  0  0  0  0  0  0
    2.6846   -8.7140   -4.6339 C   0  0  0  0  0  0  0  0  0  0  0  0
    2.6845   -9.9575   -5.2367 F   0  0  0  0  0  0  0  0  0  0  0  0
    2.9823   -7.7497   -5.5793 F   0  0  0  0  0  0  0  0  0  0  0  0
    3.6678   -8.6946   -3.6591 F   0  0  0  0  0  0  0  0  0  0  0  0
    0.9741   -0.6662    0.4839 H   0  0  0  0  0  0  0  0  0  0  0  0
    0.8872    1.0955    0.5010 H   0  0  0  0  0  0  0  0  0  0  0  0
    2.4043    0.2028   -0.0013 H   0  0  0  0  0  0  0  0  0  0  0  0
   -0.2215    0.5051   -1.6397 H   0  0  0  0  0  0  0  0  0  0  0  0
    1.3347    1.2105   -2.0108 H   0  0  0  0  0  0  0  0  0  0  0  0
    0.9235   -0.8436   -3.3758 H   0  0  0  0  0  0  0  0  0  0  0  0
    2.3332   -1.1291   -2.2798 H   0  0  0  0  0  0  0  0  0  0  0  0
    0.7089   -3.0430   -2.3297 H   0  0  0  0  0  0  0  0  0  0  0  0
    0.7838   -2.3878   -0.7099 H   0  0  0  0  0  0  0  0  0  0  0  0
   -3.6073   -0.6062   -0.3749 H   0  0  0  0  0  0  0  0  0  0  0  0
   -3.2257   -2.0762   -3.0512 H   0  0  0  0  0  0  0  0  0  0  0  0
   -4.7159   -1.2381   -2.4602 H   0  0  0  0  0  0  0  0  0  0  0  0
   -3.2234   -0.2863   -2.8129 H   0  0  0  0  0  0  0  0  0  0  0  0
   -5.3694   -4.5407   -0.8204 H   0  0  0  0  0  0  0  0  0  0  0  0
   -4.8652   -6.7865   -1.7637 H   0  0  0  0  0  0  0  0  0  0  0  0
   -0.6966   -5.6311   -1.9777 H   0  0  0  0  0  0  0  0  0  0  0  0
   -1.1728   -3.7333   -0.8746 H   0  0  0  0  0  0  0  0  0  0  0  0
    0.2988   -8.5953   -5.9527 H   0  0  0  0  0  0  0  0  0  0  0  0
    1.9796   -8.2187   -1.9954 H   0  0  0  0  0  0  0  0  0  0  0  0
   -0.2586   -7.7737   -1.1201 H   0  0  0  0  0  0  0  0  0  0  0  0
  1  2  1  0  0  0  0
  1 28  1  0  0  0  0
  1 29  1  0  0  0  0
  1 30  1  0  0  0  0
  2  3  1  0  0  0  0
  2 31  1  0  0  0  0
  2 32  1  0  0  0  0
  3  4  1  0  0  0  0
  3 33  1  0  0  0  0
  3 34  1  0  0  0  0
  4  5  1  0  0  0  0
  4 35  1  0  0  0  0
  4 36  1  0  0  0  0
  5  6  1  0  0  0  0
  6  7  2  0  0  0  0
  6  8  1  0  0  0  0
  8  9  1  0  0  0  0
  8 10  1  0  0  0  0
  8 37  1  1  0  0  0
  9 38  1  0  0  0  0
  9 39  1  0  0  0  0
  9 40  1  0  0  0  0
 10 11  1  0  0  0  0
 11 12  2  0  0  0  0
 11 16  1  0  0  0  0
 12 13  1  0  0  0  0
 12 41  1  0  0  0  0
 13 14  2  0  0  0  0
 13 42  1  0  0  0  0
 14 15  1  0  0  0  0
 14 17  1  0  0  0  0
 15 16  2  0  0  0  0
 15 43  1  0  0  0  0
 16 44  1  0  0  0  0
 17 18  1  0  0  0  0
 18 19  2  0  0  0  0
 18 23  1  0  0  0  0
 19 20  1  0  0  0  0
 20 21  2  0  0  0  0
 20 45  1  0  0  0  0
 21 22  1  0  0  0  0
 21 24  1  0  0  0  0
 22 23  2  0  0  0  0
 22 46  1  0  0  0  0
 23 47  1  0  0  0  0
 24 25  1  0  0  0  0
 24 26  1  0  0  0  0
 24 27  1  0  0  0  0
M  END
$$$$

 OpenBabel05152416213D

 67 69  0  0  1  0  0  0  0  0999 V2000
    0.9285    0.0530   -0.0051 C   0  0  0  0  0  0  0  0  0  0  0  0
    0.4028    1.3472    0.5017 C   0  0  0  0  0  0  0  0  0  0  0  0
   -0.4165    2.0423   -0.2854 C   0  0  0  0  0  0  0  0  0  0  0  0
   -0.8616    3.3716    0.0919 C   0  0  0  0  0  0  0  0  0  0  0  0
    0.2749    4.1661   -0.5123 C   0  0  2  0  0  0  0  0  0  0  0  0
    0.7813    5.5285    0.1197 C   0  0  1  0  0  0  0  0  0  0  0  0
   -0.3285    5.2416   -0.8200 O   0  0  0  0  0  0  0  0  0  0  0  0
    0.6803    5.6600    1.7739 C   0  0  0  0  0  0  0  0  0  0  0  0
    1.0820    7.0232   -0.1072 C   0  0  1  0  0  0  0  0  0  0  0  0
    2.2829    7.9407   -1.0189 C   0  0  1  0  0  0  0  0  0  0  0  0
    1.6262    7.5748   -2.3598 C   0  0  1  0  0  0  0  0  0  0  0  0
    0.6502    8.7973   -2.3206 C   0  0  0  0  0  0  0  0  0  0  0  0
   -0.0616    8.9952   -0.7162 C   0  0  0  0  0  0  0  0  0  0  0  0
   -0.4086    7.5379    0.3100 C   0  0  2  0  0  0  0  0  0  0  0  0
   -1.5680    6.9538    1.5433 C   0  0  0  0  0  0  0  0  0  0  0  0
   -1.5860    6.4588    0.3369 O   0  0  0  0  0  0  0  0  0  0  0  0
    0.8902    6.4017   -2.8133 O   0  0  0  0  0  0  0  0  0  0  0  0
   -0.4279    5.9493   -3.2204 C   0  0  0  0  0  0  0  0  0  0  0  0
   -0.4365    4.8762   -3.8080 O   0  0  0  0  0  0  0  0  0  0  0  0
   -1.9034    6.4368   -2.6085 C   0  0  0  0  0  0  0  0  0  0  0  0
   -1.8764    7.4590   -1.8127 C   0  0  0  0  0  0  0  0  0  0  0  0
   -2.7412    8.3345   -0.4555 C   0  0  0  0  0  0  0  0  0  0  0  0
   -2.2662    9.1895    0.7882 C   0  0  0  0  0  0  0  0  0  0  0  0
   -2.8752    9.2169    2.1721 C   0  0  0  0  0  0  0  0  0  0  0  0
   -2.3092    9.8950    3.2301 C   0  0  0  0  0  0  0  0  0  0  0  0
   -3.1916   10.1863    4.3791 C   0  0  0  0  0  0  0  0  0  0  0  0
   -2.8917   11.1198    5.2988 C   0  0  0  0  0  0  0  0  0  0  0  0
   -3.8762   11.5275    6.3372 C   0  0  0  0  0  0  0  0  0  0  0  0
   -3.5697   12.3786    7.1588 O   0  0  0  0  0  0  0  0  0  0  0  0
   -5.1100   10.9691    6.3771 O   0  0  0  0  0  0  0  0  0  0  0  0
    2.6447    9.4150   -1.2176 O   0  0  0  0  0  0  0  0  0  0  0  0
    3.3881   10.2017   -0.2738 C   0  0  0  0  0  0  0  0  0  0  0  0
    0.8420    1.8358    1.8729 C   0  0  0  0  0  0  0  0  0  0  0  0
    0.5693   -0.1575   -1.0366 H   0  0  0  0  0  0  0  0  0  0  0  0
    0.5681   -0.7367    0.6719 H   0  0  0  0  0  0  0  0  0  0  0  0
    2.0365    0.0766   -0.0174 H   0  0  0  0  0  0  0  0  0  0  0  0
   -0.6588    1.7354   -1.3056 H   0  0  0  0  0  0  0  0  0  0  0  0
   -1.9715    3.5087   -0.0082 H   0  0  0  0  0  0  0  0  0  0  0  0
   -0.7983    3.6355    1.1038 H   0  0  0  0  0  0  0  0  0  0  0  0
    0.5791    3.8818   -1.5207 H   0  0  0  0  0  0  0  0  0  0  0  0
    0.7195    6.7223    2.2566 H   0  0  0  0  0  0  0  0  0  0  0  0
    0.7010    6.8122    2.1588 H   0  0  0  0  0  0  0  0  0  0  0  0
   -0.2167    5.1984    2.1678 H   0  0  0  0  0  0  0  0  0  0  0  0
    1.8654    7.2015    0.6094 H   0  0  0  0  0  0  0  0  0  0  0  0
    3.3742    7.7506   -0.6824 H   0  0  0  0  0  0  0  0  0  0  0  0
    2.4767    6.8851   -2.0964 H   0  0  0  0  0  0  0  0  0  0  0  0
   -0.1785    8.7626   -3.0778 H   0  0  0  0  0  0  0  0  0  0  0  0
    0.8064    8.6166   -3.4075 H   0  0  0  0  0  0  0  0  0  0  0  0
   -0.8830    9.7295   -0.9809 H   0  0  0  0  0  0  0  0  0  0  0  0
    0.6014    9.4741   -0.0289 H   0  0  0  0  0  0  0  0  0  0  0  0
   -2.4969    6.5890    2.1386 H   0  0  0  0  0  0  0  0  0  0  0  0
   -1.2404    7.0367    2.5263 H   0  0  0  0  0  0  0  0  0  0  0  0
   -2.7372    5.8618   -2.3680 H   0  0  0  0  0  0  0  0  0  0  0  0
   -0.9872    7.5621   -1.7764 H   0  0  0  0  0  0  0  0  0  0  0  0
   -3.6368    7.8324   -0.1531 H   0  0  0  0  0  0  0  0  0  0  0  0
   -1.2238    9.5764    1.0507 H   0  0  0  0  0  0  0  0  0  0  0  0
   -3.7503    8.6328    2.3345 H   0  0  0  0  0  0  0  0  0  0  0  0
   -1.3280   10.3990    3.1823 H   0  0  0  0  0  0  0  0  0  0  0  0
   -4.1762    9.7372    4.3779 H   0  0  0  0  0  0  0  0  0  0  0  0
   -1.9251   11.6201    5.2575 H   0  0  0  0  0  0  0  0  0  0  0  0
   -5.7673   11.2043    7.0499 H   0  0  0  0  0  0  0  0  0  0  0  0
    2.6822   10.4467    0.5164 H   0  0  0  0  0  0  0  0  0  0  0  0
    4.3089    9.7293    0.1180 H   0  0  0  0  0  0  0  0  0  0  0  0
    3.7771   11.2075   -0.6741 H   0  0  0  0  0  0  0  0  0  0  0  0
    0.4443    1.1488    2.6278 H   0  0  0  0  0  0  0  0  0  0  0  0
    1.9362    1.9552    1.9080 H   0  0  0  0  0  0  0  0  0  0  0  0
    0.5093    2.8116    2.2322 H   0  0  0  0  0  0  0  0  0  0  0  0
  1  2  1  0  0  0  0
  1 34  1  0  0  0  0
  1 35  1  0  0  0  0
  1 36  1  0  0  0  0
  2  3  2  0  0  0  0
  2 33  1  0  0  0  0
  3  4  1  0  0  0  0
  3 37  1  0  0  0  0
  4  5  1  0  0  0  0
  4 38  1  0  0  0  0
  4 39  1  0  0  0  0
  5  6  1  0  0  0  0
  5  7  1  0  0  0  0
  5 40  1  6  0  0  0
  6  7  1  0  0  0  0
  6  8  1  1  0  0  0
  6  9  1  0  0  0  0
  8 41  1  0  0  0  0
  8 42  1  0  0  0  0
  8 43  1  0  0  0  0
  9 10  1  0  0  0  0
  9 14  1  0  0  0  0
  9 44  1  1  0  0  0
 10 11  1  0  0  0  0
 10 31  1  0  0  0  0
 10 45  1  1  0  0  0
 11 12  1  0  0  0  0
 11 17  1  0  0  0  0
 11 46  1  1  0  0  0
 12 13  1  0  0  0  0
 12 47  1  0  0  0  0
 12 48  1  0  0  0  0
 13 14  1  0  0  0  0
 13 49  1  0  0  0  0
 13 50  1  0  0  0  0
 14 15  1  0  0  0  0
 14 16  1  6  0  0  0
 15 16  1  0  0  0  0
 15 51  1  0  0  0  0
 15 52  1  0  0  0  0
 17 18  1  0  0  0  0
 18 19  2  0  0  0  0
 18 20  1  0  0  0  0
 20 21  2  0  0  0  0
 20 53  1  0  0  0  0
 21 22  1  0  0  0  0
 21 54  1  0  0  0  0
 22 23  2  0  0  0  0
 22 55  1  0  0  0  0
 23 24  1  0  0  0  0
 23 56  1  0  0  0  0
 24 25  2  0  0  0  0
 24 57  1  0  0  0  0
 25 26  1  0  0  0  0
 25 58  1  0  0  0  0
 26 27  2  0  0  0  0
 26 59  1  0  0  0  0
 27 28  1  0  0  0  0
 27 60  1  0  0  0  0
 28 29  2  0  0  0  0
 28 30  1  0  0  0  0
 30 61  1  0  0  0  0
 31 32  1  0  0  0  0
 32 62  1  0  0  0  0
 32 63  1  0  0  0  0
 32 64  1  0  0  0  0
 33 65  1  0  0  0  0
 33 66  1  0  0  0  0
 33 67  1  0  0  0  0
M  END
$$$$

 OpenBabel05152416213D

 29 30  0  0  0  0  0  0  0  0999 V2000
    0.9038   -0.0447   -0.2455 C   0  0  0  0  0  0  0  0  0  0  0  0
    0.5717    1.4316   -0.1198 C   0  0  0  0  0  0  0  0  0  0  0  0
    1.0572    2.1493   -1.3905 C   0  0  0  0  0  0  0  0  0  0  0  0
   -0.9696    1.5036   -0.0359 C   0  0  0  0  0  0  0  0  0  0  0  0
    1.1656    2.0115    1.1224 N   0  0  0  0  0  0  0  0  0  0  0  0
    2.9567    2.2304    1.1944 S   0  0  0  0  0  0  0  0  0  0  0  0
    3.5485    0.5394    1.5371 C   0  0  0  0  0  0  0  0  0  0  0  0
    2.7547   -0.5520    1.5863 N   0  0  0  0  0  0  0  0  0  0  0  0
    3.4409   -1.7055    1.5083 C   0  0  0  0  0  0  0  0  0  0  0  0
    2.8478   -2.9693    1.3912 C   0  0  0  0  0  0  0  0  0  0  0  0
    3.6739   -4.0978    1.3183 C   0  0  0  0  0  0  0  0  0  0  0  0
    5.0758   -3.9560    1.3701 C   0  0  0  0  0  0  0  0  0  0  0  0
    5.6592   -2.6747    1.4433 C   0  0  0  0  0  0  0  0  0  0  0  0
    4.8148   -1.5696    1.4926 C   0  0  0  0  0  0  0  0  0  0  0  0
    5.1840    0.0801    1.4936 S   0  0  0  0  0  0  0  0  0  0  0  0
    0.3741   -0.5513   -1.0696 H   0  0  0  0  0  0  0  0  0  0  0  0
    0.5922   -0.5512    0.6988 H   0  0  0  0  0  0  0  0  0  0  0  0
    1.9743   -0.1375   -0.5084 H   0  0  0  0  0  0  0  0  0  0  0  0
    0.6569    1.6290   -2.2885 H   0  0  0  0  0  0  0  0  0  0  0  0
    0.7258    3.2066   -1.4058 H   0  0  0  0  0  0  0  0  0  0  0  0
    2.1650    2.1167   -1.4553 H   0  0  0  0  0  0  0  0  0  0  0  0
   -1.3344    1.0056    0.8903 H   0  0  0  0  0  0  0  0  0  0  0  0
   -1.3348    2.5502   -0.0441 H   0  0  0  0  0  0  0  0  0  0  0  0
   -1.4242    0.9740   -0.9043 H   0  0  0  0  0  0  0  0  0  0  0  0
    0.7869    2.9875    1.2157 H   0  0  0  0  0  0  0  0  0  0  0  0
    1.7692   -3.0718    1.3375 H   0  0  0  0  0  0  0  0  0  0  0  0
    3.2314   -5.0832    1.2238 H   0  0  0  0  0  0  0  0  0  0  0  0
    5.7025   -4.8360    1.3347 H   0  0  0  0  0  0  0  0  0  0  0  0
    6.7336   -2.5568    1.4513 H   0  0  0  0  0  0  0  0  0  0  0  0
  1  2  1  0  0  0  0
  1 16  1  0  0  0  0
  1 17  1  0  0  0  0
  1 18  1  0  0  0  0
  2  3  1  0  0  0  0
  2  4  1  0  0  0  0
  2  5  1  0  0  0  0
  3 19  1  0  0  0  0
  3 20  1  0  0  0  0
  3 21  1  0  0  0  0
  4 22  1  0  0  0  0
  4 23  1  0  0  0  0
  4 24  1  0  0  0  0
  5  6  1  0  0  0  0
  5 25  1  0  0  0  0
  6  7  1  0  0  0  0
  7  8  2  0  0  0  0
  7 15  1  0  0  0  0
  8  9  1  0  0  0  0
  9 10  2  0  0  0  0
  9 14  1  0  0  0  0
 10 11  1  0  0  0  0
 10 26  1  0  0  0  0
 11 12  2  0  0  0  0
 11 27  1  0  0  0  0
 12 13  1  0  0  0  0
 12 28  1  0  0  0  0
 13 14  2  0  0  0  0
 13 29  1  0  0  0  0
 14 15  1  0  0  0  0
M  END
$$$$

 OpenBabel05152416213D

 32 33  0  0  0  0  0  0  0  0999 V2000
    2.2272    0.6593   -0.5766 C   0  0  0  0  0  0  0  0  0  0  0  0
    2.2635   -0.9543    0.0739 C   0  0  0  0  0  0  0  0  0  0  0  0
    0.8734   -1.6058   -0.2574 C   0  0  0  0  0  0  0  0  0  0  0  0
   -0.3095   -0.6478   -0.1318 N   0  0  0  0  0  0  0  0  0  0  0  0
   -1.6260   -1.0228   -0.0576 C   0  0  0  0  0  0  0  0  0  0  0  0
   -2.4713    0.0335    0.0394 N   0  0  0  0  0  0  0  0  0  0  0  0
   -1.6783    1.1328    0.0076 C   0  0  0  0  0  0  0  0  0  0  0  0
   -0.3313    0.7305   -0.1375 C   0  0  0  0  0  0  0  0  0  0  0  0
    0.9432    1.6290   -0.2368 C   0  0  0  0  0  0  0  0  0  0  0  0
    1.0929   -1.9739   -1.6917 C   0  0  0  0  0  0  0  0  0  0  0  0
    2.1843   -2.7908   -2.0829 C   0  0  0  0  0  0  0  0  0  0  0  0
    2.4311   -3.0197   -3.4259 C   0  0  0  0  0  0  0  0  0  0  0  0
    1.5607   -2.4866   -4.3837 C   0  0  0  0  0  0  0  0  0  0  0  0
    0.5174   -1.6556   -4.0046 C   0  0  0  0  0  0  0  0  0  0  0  0
    0.2907   -1.3967   -2.6774 C   0  0  0  0  0  0  0  0  0  0  0  0
    1.7136   -2.8536   -5.7499 C   0  0  0  0  0  0  0  0  0  0  0  0
    1.9451   -3.2437   -6.8109 N   0  0  0  0  0  0  0  0  0  0  0  0
    1.5209    0.4676    2.3416 Cl  0  0  0  0  0  0  0  0  0  0  0  0
    3.1116    1.3640   -0.3999 H   0  0  0  0  0  0  0  0  0  0  0  0
    2.2598    0.5935   -1.7035 H   0  0  0  0  0  0  0  0  0  0  0  0
    3.2065   -1.6205   -0.0858 H   0  0  0  0  0  0  0  0  0  0  0  0
    2.4573   -1.3755    1.1432 H   0  0  0  0  0  0  0  0  0  0  0  0
    0.6872   -2.5285    0.4017 H   0  0  0  0  0  0  0  0  0  0  0  0
   -1.9785   -2.0595   -0.0634 H   0  0  0  0  0  0  0  0  0  0  0  0
   -2.0722    2.1505    0.0974 H   0  0  0  0  0  0  0  0  0  0  0  0
    1.0484    2.2854    0.7072 H   0  0  0  0  0  0  0  0  0  0  0  0
    0.8618    2.5346   -0.9443 H   0  0  0  0  0  0  0  0  0  0  0  0
    2.8689   -3.2344   -1.3680 H   0  0  0  0  0  0  0  0  0  0  0  0
    3.2854   -3.6313   -3.6951 H   0  0  0  0  0  0  0  0  0  0  0  0
   -0.1428   -1.2144   -4.7267 H   0  0  0  0  0  0  0  0  0  0  0  0
   -0.5224   -0.7333   -2.4475 H   0  0  0  0  0  0  0  0  0  0  0  0
    2.8250    0.5709    1.7108 H   0  0  0  0  0  0  0  0  0  0  0  0
  1  2  1  0  0  0  0
  1  9  1  0  0  0  0
  1 19  1  0  0  0  0
  1 20  1  0  0  0  0
  2  3  1  0  0  0  0
  2 21  1  0  0  0  0
  2 22  1  0  0  0  0
  3  4  1  0  0  0  0
  3 10  1  0  0  0  0
  3 23  1  0  0  0  0
  4  5  1  0  0  0  0
  4  8  1  0  0  0  0
  5  6  2  0  0  0  0
  5 24  1  0  0  0  0
  6  7  1  0  0  0  0
  7  8  2  0  0  0  0
  7 25  1  0  0  0  0
  8  9  1  0  0  0  0
  9 26  1  0  0  0  0
  9 27  1  0  0  0  0
 10 11  2  0  0  0  0
 10 15  1  0  0  0  0
 11 12  1  0  0  0  0
 11 28  1  0  0  0  0
 12 13  2  0  0  0  0
 12 29  1  0  0  0  0
 13 14  1  0  0  0  0
 13 16  1  0  0  0  0
 14 15  2  0  0  0  0
 14 30  1  0  0  0  0
 15 31  1  0  0  0  0
 16 17  3  0  0  0  0
 18 32  1  0  0  0  0
M  END
$$$$

 OpenBabel05152416213D

 41 42  0  0  0  0  0  0  0  0999 V2000
   -1.2206    1.2451    0.1958 C   0  0  0  0  0  0  0  0  0  0  0  0
   -0.5832   -0.0019   -0.4195 C   0  0  0  0  0  0  0  0  0  0  0  0
   -1.2739   -1.2114    0.2114 C   0  0  0  0  0  0  0  0  0  0  0  0
    0.8390   -0.0296   -0.0975 C   0  0  0  0  0  0  0  0  0  0  0  0
    1.9721    0.0035    0.1205 N   0  0  0  0  0  0  0  0  0  0  0  0
   -0.7668   -0.0110   -1.9162 C   0  0  0  0  0  0  0  0  0  0  0  0
   -0.8897    1.1655   -2.6502 C   0  0  0  0  0  0  0  0  0  0  0  0
   -1.2812    1.1105   -3.9783 C   0  0  0  0  0  0  0  0  0  0  0  0
   -1.3511   -0.1118   -4.6221 C   0  0  0  0  0  0  0  0  0  0  0  0
   -1.2097   -1.2802   -3.9228 C   0  0  0  0  0  0  0  0  0  0  0  0
   -0.9025   -1.2202   -2.5866 C   0  0  0  0  0  0  0  0  0  0  0  0
   -1.4345   -2.5863   -4.5842 C   0  0  0  0  0  0  0  0  0  0  0  0
   -2.8005   -2.6783   -5.0977 N   0  0  0  0  0  0  0  0  0  0  0  0
   -3.3970   -1.8965   -6.0183 C   0  0  0  0  0  0  0  0  0  0  0  0
   -4.6550   -2.2968   -6.2386 N   0  0  0  0  0  0  0  0  0  0  0  0
   -4.7925   -3.3570   -5.4206 C   0  0  0  0  0  0  0  0  0  0  0  0
   -3.6698   -3.5978   -4.7205 N   0  0  0  0  0  0  0  0  0  0  0  0
   -1.9117    2.2976   -4.6513 C   0  0  0  0  0  0  0  0  0  0  0  0
   -1.4902    2.5816   -6.0887 C   0  0  0  0  0  0  0  0  0  0  0  0
   -3.3645    1.8490   -4.6482 C   0  0  0  0  0  0  0  0  0  0  0  0
   -1.8134    3.5477   -3.8720 C   0  0  0  0  0  0  0  0  0  0  0  0
   -1.6648    4.5251   -3.2727 N   0  0  0  0  0  0  0  0  0  0  0  0
   -2.3072    1.2752   -0.0071 H   0  0  0  0  0  0  0  0  0  0  0  0
   -1.0618    1.2531    1.2794 H   0  0  0  0  0  0  0  0  0  0  0  0
   -0.7657    2.1572   -0.2040 H   0  0  0  0  0  0  0  0  0  0  0  0
   -2.3540   -1.2169   -0.0225 H   0  0  0  0  0  0  0  0  0  0  0  0
   -0.8382   -2.1506   -0.1415 H   0  0  0  0  0  0  0  0  0  0  0  0
   -1.1353   -1.2102    1.2925 H   0  0  0  0  0  0  0  0  0  0  0  0
   -0.7084    2.1197   -2.2008 H   0  0  0  0  0  0  0  0  0  0  0  0
   -1.5368   -0.1073   -5.6668 H   0  0  0  0  0  0  0  0  0  0  0  0
   -0.7417   -2.1304   -2.0838 H   0  0  0  0  0  0  0  0  0  0  0  0
   -0.7189   -2.6990   -5.4018 H   0  0  0  0  0  0  0  0  0  0  0  0
   -1.2695   -3.3973   -3.8527 H   0  0  0  0  0  0  0  0  0  0  0  0
   -2.9624   -1.0650   -6.5359 H   0  0  0  0  0  0  0  0  0  0  0  0
   -5.6917   -3.9463   -5.3380 H   0  0  0  0  0  0  0  0  0  0  0  0
   -0.4068    2.6986   -6.1754 H   0  0  0  0  0  0  0  0  0  0  0  0
   -1.8266    1.7782   -6.7637 H   0  0  0  0  0  0  0  0  0  0  0  0
   -1.9779    3.5174   -6.4311 H   0  0  0  0  0  0  0  0  0  0  0  0
   -3.4789    0.8920   -5.1998 H   0  0  0  0  0  0  0  0  0  0  0  0
   -3.6922    1.6568   -3.6066 H   0  0  0  0  0  0  0  0  0  0  0  0
   -4.0055    2.5790   -5.1153 H   0  0  0  0  0  0  0  0  0  0  0  0
  1  2  1  0  0  0  0
  1 23  1  0  0  0  0
  1 24  1  0  0  0  0
  1 25  1  0  0  0  0
  2  3  1  0  0  0  0
  2  4  1  0  0  0  0
  2  6  1  0  0  0  0
  3 26  1  0  0  0  0
  3 27  1  0  0  0  0
  3 28  1  0  0  0  0
  4  5  3  0  0  0  0
  6  7  2  0  0  0  0
  6 11  1  0  0  0  0
  7  8  1  0  0  0  0
  7 29  1  0  0  0  0
  8  9  2  0  0  0  0
  8 18  1  0  0  0  0
  9 10  1  0  0  0  0
  9 30  1  0  0  0  0
 10 11  2  0  0  0  0
 10 12  1  0  0  0  0
 11 31  1  0  0  0  0
 12 13  1  0  0  0  0
 12 32  1  0  0  0  0
 12 33  1  0  0  0  0
 13 14  1  0  0  0  0
 13 17  1  0  0  0  0
 14 15  2  0  0  0  0
 14 34  1  0  0  0  0
 15 16  1  0  0  0  0
 16 17  2  0  0  0  0
 16 35  1  0  0  0  0
 18 19  1  0  0  0  0
 18 20  1  0  0  0  0
 18 21  1  0  0  0  0
 19 36  1  0  0  0  0
 19 37  1  0  0  0  0
 19 38  1  0  0  0  0
 20 39  1  0  0  0  0
 20 40  1  0  0  0  0
 20 41  1  0  0  0  0
 21 22  3  0  0  0  0
M  END
$$$$

 OpenBabel05152416213D

 27 28  0  0  0  0  0  0  0  0999 V2000
    0.2213   -1.2127   -0.0197 C   0  0  0  0  0  0  0  0  0  0  0  0
   -1.1808   -1.1799   -0.0049 C   0  0  0  0  0  0  0  0  0  0  0  0
   -1.8594    0.0484    0.0197 C   0  0  0  0  0  0  0  0  0  0  0  0
   -1.1013    1.2408    0.0281 C   0  0  0  0  0  0  0  0  0  0  0  0
    0.2844    1.2055    0.0032 C   0  0  0  0  0  0  0  0  0  0  0  0
    0.9577   -0.0161   -0.0151 C   0  0  0  0  0  0  0  0  0  0  0  0
    2.3714   -0.0323   -0.0153 N   0  0  0  0  0  0  0  0  0  0  0  0
   -3.2213    0.0654    0.0815 O   0  0  0  0  0  0  0  0  0  0  0  0
   -3.9651    1.1974    0.0186 C   0  0  0  0  0  0  0  0  0  0  0  0
   -3.8178    2.1117   -1.0423 C   0  0  0  0  0  0  0  0  0  0  0  0
   -4.5220    3.3150   -1.0373 C   0  0  0  0  0  0  0  0  0  0  0  0
   -5.3931    3.6174    0.0184 C   0  0  0  0  0  0  0  0  0  0  0  0
   -5.5642    2.6917    1.0603 C   0  0  0  0  0  0  0  0  0  0  0  0
   -4.8580    1.4861    1.0556 C   0  0  0  0  0  0  0  0  0  0  0  0
   -6.0870    4.8496    0.0358 N   0  0  0  0  0  0  0  0  0  0  0  0
    0.7353   -2.1657   -0.0268 H   0  0  0  0  0  0  0  0  0  0  0  0
   -1.7356   -2.1113    0.0008 H   0  0  0  0  0  0  0  0  0  0  0  0
   -1.5652    2.2133    0.0696 H   0  0  0  0  0  0  0  0  0  0  0  0
    0.8319    2.1393    0.0113 H   0  0  0  0  0  0  0  0  0  0  0  0
    2.8902   -0.9211   -0.0086 H   0  0  0  0  0  0  0  0  0  0  0  0
    2.9013    0.8529   -0.0029 H   0  0  0  0  0  0  0  0  0  0  0  0
   -3.1342    1.8994   -1.8557 H   0  0  0  0  0  0  0  0  0  0  0  0
   -4.3764    4.0195   -1.8471 H   0  0  0  0  0  0  0  0  0  0  0  0
   -6.2308    2.9141    1.8838 H   0  0  0  0  0  0  0  0  0  0  0  0
   -4.9762    0.7899    1.8770 H   0  0  0  0  0  0  0  0  0  0  0  0
   -6.7234    5.0840    0.8117 H   0  0  0  0  0  0  0  0  0  0  0  0
   -5.9558    5.5367   -0.7216 H   0  0  0  0  0  0  0  0  0  0  0  0
  1  2  2  0  0  0  0
  1  6  1  0  0  0  0
  1 16  1  0  0  0  0
  2  3  1  0  0  0  0
  2 17  1  0  0  0  0
  3  4  2  0  0  0  0
  3  8  1  0  0  0  0
  4  5  1  0  0  0  0
  4 18  1  0  0  0  0
  5  6  2  0  0  0  0
  5 19  1  0  0  0  0
  6  7  1  0  0  0  0
  7 20  1  0  0  0  0
  7 21  1  0  0  0  0
  8  9  1  0  0  0  0
  9 10  2  0  0  0  0
  9 14  1  0  0  0  0
 10 11  1  0  0  0  0
 10 22  1  0  0  0  0
 11 12  2  0  0  0  0
 11 23  1  0  0  0  0
 12 13  1  0  0  0  0
 12 15  1  0  0  0  0
 13 14  2  0  0  0  0
 13 24  1  0  0  0  0
 14 25  1  0  0  0  0
 15 26  1  0  0  0  0
 15 27  1  0  0  0  0
M  END
$$$$

 OpenBabel05152416213D

 29 29  0  0  0  0  0  0  0  0999 V2000
    0.7552   -0.1503    0.3156 C   0  0  0  0  0  0  0  0  0  0  0  0
    0.3211   -0.8885   -0.9491 C   0  0  0  0  0  0  0  0  0  0  0  0
    0.9375   -2.1573   -1.1425 O   0  0  0  0  0  0  0  0  0  0  0  0
    2.6675   -2.1573   -1.1425 P   0  0  0  0  0  0  0  0  0  0  0  0
    2.5142   -3.2637   -2.5089 S   0  0  0  0  0  0  0  0  0  0  0  0
    2.9249   -0.6810   -2.3760 C   0  0  0  0  0  0  0  0  0  0  0  0
    3.5098    0.5963   -1.7267 C   0  0  0  0  0  0  0  0  0  0  0  0
    4.7875   -2.1573   -1.1425 S   0  0  0  0  0  0  0  0  0  0  0  0
    5.2917   -3.8524   -0.7160 C   0  0  0  0  0  0  0  0  0  0  0  0
    4.8896   -4.9949   -1.4430 C   0  0  0  0  0  0  0  0  0  0  0  0
    5.2796   -6.2687   -1.0327 C   0  0  0  0  0  0  0  0  0  0  0  0
    6.1198   -6.4242    0.0576 C   0  0  0  0  0  0  0  0  0  0  0  0
    6.6023   -5.2992    0.7368 C   0  0  0  0  0  0  0  0  0  0  0  0
    6.1805   -4.0185    0.3490 C   0  0  0  0  0  0  0  0  0  0  0  0
    0.3332   -0.6421    1.2075 H   0  0  0  0  0  0  0  0  0  0  0  0
    0.4085    0.9054    0.2492 H   0  0  0  0  0  0  0  0  0  0  0  0
    1.8458   -0.1469    0.4551 H   0  0  0  0  0  0  0  0  0  0  0  0
   -0.7765   -1.0408   -0.8783 H   0  0  0  0  0  0  0  0  0  0  0  0
    0.3823   -0.2507   -1.8429 H   0  0  0  0  0  0  0  0  0  0  0  0
    3.6251   -0.9581   -3.1969 H   0  0  0  0  0  0  0  0  0  0  0  0
    2.0237   -0.4320   -2.9533 H   0  0  0  0  0  0  0  0  0  0  0  0
    4.5426    0.4327   -1.3580 H   0  0  0  0  0  0  0  0  0  0  0  0
    3.5600    1.4096   -2.4748 H   0  0  0  0  0  0  0  0  0  0  0  0
    2.9270    0.9886   -0.8841 H   0  0  0  0  0  0  0  0  0  0  0  0
    4.2876   -4.9541   -2.3180 H   0  0  0  0  0  0  0  0  0  0  0  0
    4.9190   -7.1315   -1.5817 H   0  0  0  0  0  0  0  0  0  0  0  0
    6.4159   -7.4178    0.3692 H   0  0  0  0  0  0  0  0  0  0  0  0
    7.2890   -5.4198    1.5586 H   0  0  0  0  0  0  0  0  0  0  0  0
    6.5618   -3.1548    0.8833 H   0  0  0  0  0  0  0  0  0  0  0  0
  1  2  1  0  0  0  0
  1 15  1  0  0  0  0
  1 16  1  0  0  0  0
  1 17  1  0  0  0  0
  2  3  1  0  0  0  0
  2 18  1  0  0  0  0
  2 19  1  0  0  0  0
  3  4  1  0  0  0  0
  4  5  2  0  0  0  0
  4  6  1  0  0  0  0
  4  8  1  0  0  0  0
  6  7  1  0  0  0  0
  6 20  1  0  0  0  0
  6 21  1  0  0  0  0
  7 22  1  0  0  0  0
  7 23  1  0  0  0  0
  7 24  1  0  0  0  0
  8  9  1  0  0  0  0
  9 10  2  0  0  0  0
  9 14  1  0  0  0  0
 10 11  1  0  0  0  0
 10 25  1  0  0  0  0
 11 12  2  0  0  0  0
 11 26  1  0  0  0  0
 12 13  1  0  0  0  0
 12 27  1  0  0  0  0
 13 14  2  0  0  0  0
 13 28  1  0  0  0  0
 14 29  1  0  0  0  0
M  END
$$$$

 OpenBabel05152416213D

 29 30  0  0  0  0  0  0  0  0999 V2000
    0.5617    1.2924    0.0881 C   0  0  0  0  0  0  0  0  0  0  0  0
   -0.8289    1.2209    0.0596 C   0  0  0  0  0  0  0  0  0  0  0  0
   -1.4554    0.0212   -0.0105 N   0  0  0  0  0  0  0  0  0  0  0  0
   -0.7548   -1.1444   -0.1013 C   0  0  0  0  0  0  0  0  0  0  0  0
    0.6314   -1.1119   -0.1263 C   0  0  0  0  0  0  0  0  0  0  0  0
    1.3057    0.1129    0.0171 C   0  0  0  0  0  0  0  0  0  0  0  0
    2.7986    0.2071    0.0320 C   0  0  0  0  0  0  0  0  0  0  0  0
    3.5087   -0.5639    1.1988 C   0  0  0  0  0  0  0  0  0  0  0  0
    3.2954   -2.0938    1.2552 C   0  0  0  0  0  0  0  0  0  0  0  0
    3.6886   -2.8290   -0.0264 C   0  0  0  0  0  0  0  0  0  0  0  0
    3.3568   -4.1852   -0.1629 C   0  0  0  0  0  0  0  0  0  0  0  0
    3.6441   -4.8536   -1.3602 C   0  0  0  0  0  0  0  0  0  0  0  0
    4.2140   -4.1902   -2.3995 N   0  0  0  0  0  0  0  0  0  0  0  0
    4.5688   -2.8868   -2.2939 C   0  0  0  0  0  0  0  0  0  0  0  0
    4.3530   -2.2048   -1.1064 C   0  0  0  0  0  0  0  0  0  0  0  0
    1.0584    2.2522    0.1419 H   0  0  0  0  0  0  0  0  0  0  0  0
   -1.4051    2.1337    0.0931 H   0  0  0  0  0  0  0  0  0  0  0  0
   -1.2698   -2.0915   -0.1637 H   0  0  0  0  0  0  0  0  0  0  0  0
    1.1459   -2.0510   -0.2556 H   0  0  0  0  0  0  0  0  0  0  0  0
    3.0657   -0.0819   -0.9898 H   0  0  0  0  0  0  0  0  0  0  0  0
    3.1339    1.2637    0.1114 H   0  0  0  0  0  0  0  0  0  0  0  0
    4.6038   -0.3950    1.1319 H   0  0  0  0  0  0  0  0  0  0  0  0
    3.1692   -0.1267    2.1643 H   0  0  0  0  0  0  0  0  0  0  0  0
    3.8324   -2.5321    2.1218 H   0  0  0  0  0  0  0  0  0  0  0  0
    2.2298   -2.2732    1.5063 H   0  0  0  0  0  0  0  0  0  0  0  0
    2.8729   -4.7194    0.6448 H   0  0  0  0  0  0  0  0  0  0  0  0
    3.4009   -5.8993   -1.4718 H   0  0  0  0  0  0  0  0  0  0  0  0
    5.0223   -2.3684   -3.1293 H   0  0  0  0  0  0  0  0  0  0  0  0
    4.7133   -1.1938   -1.0749 H   0  0  0  0  0  0  0  0  0  0  0  0
  1  2  2  0  0  0  0
  1  6  1  0  0  0  0
  1 16  1  0  0  0  0
  2  3  1  0  0  0  0
  2 17  1  0  0  0  0
  3  4  2  0  0  0  0
  4  5  1  0  0  0  0
  4 18  1  0  0  0  0
  5  6  2  0  0  0  0
  5 19  1  0  0  0  0
  6  7  1  0  0  0  0
  7  8  1  0  0  0  0
  7 20  1  0  0  0  0
  7 21  1  0  0  0  0
  8  9  1  0  0  0  0
  8 22  1  0  0  0  0
  8 23  1  0  0  0  0
  9 10  1  0  0  0  0
  9 24  1  0  0  0  0
  9 25  1  0  0  0  0
 10 11  2  0  0  0  0
 10 15  1  0  0  0  0
 11 12  1  0  0  0  0
 11 26  1  0  0  0  0
 12 13  2  0  0  0  0
 12 27  1  0  0  0  0
 13 14  1  0  0  0  0
 14 15  2  0  0  0  0
 14 28  1  0  0  0  0
 15 29  1  0  0  0  0
M  END
$$$$

 OpenBabel05152416213D

 16 16  0  0  0  0  0  0  0  0999 V2000
   -0.7088    1.1923   -0.0005 C   0  0  0  0  0  0  0  0  0  0  0  0
    0.6849    1.1943    0.0004 C   0  0  0  0  0  0  0  0  0  0  0  0
    1.3807   -0.0051    0.0001 C   0  0  0  0  0  0  0  0  0  0  0  0
    0.6972   -1.2188    0.0007 C   0  0  0  0  0  0  0  0  0  0  0  0
   -0.7214   -1.2571    0.0004 C   0  0  0  0  0  0  0  0  0  0  0  0
   -1.4496   -0.0132   -0.0017 C   0  0  0  0  0  0  0  0  0  0  0  0
   -2.8868    0.0897   -0.0055 N   0  3  0  0  0  0  0  0  0  0  0  0
   -3.5890   -0.8722   -0.0122 O   0  0  0  0  0  0  0  0  0  0  0  0
   -3.4632    1.2732   -0.0085 O   0  5  0  0  0  0  0  0  0  0  0  0
   -1.3558   -2.5381    0.0028 N   0  0  0  0  0  0  0  0  0  0  0  0
    1.6803   -2.6825    0.0023 Cl  0  0  0  0  0  0  0  0  0  0  0  0
    1.5710    2.7097    0.0018 Cl  0  0  0  0  0  0  0  0  0  0  0  0
   -1.2138    2.1502   -0.0007 H   0  0  0  0  0  0  0  0  0  0  0  0
    2.4640    0.0039    0.0001 H   0  0  0  0  0  0  0  0  0  0  0  0
   -0.8024   -3.4042    0.0051 H   0  0  0  0  0  0  0  0  0  0  0  0
   -2.3655   -2.6914    0.0065 H   0  0  0  0  0  0  0  0  0  0  0  0
  1  2  2  0  0  0  0
  1  6  1  0  0  0  0
  1 13  1  0  0  0  0
  2  3  1  0  0  0  0
  2 12  1  0  0  0  0
  3  4  2  0  0  0  0
  3 14  1  0  0  0  0
  4  5  1  0  0  0  0
  4 11  1  0  0  0  0
  5  6  2  0  0  0  0
  5 10  1  0  0  0  0
  6  7  1  0  0  0  0
  7  8  2  0  0  0  0
  7  9  1  0  0  0  0
 10 15  1  0  0  0  0
 10 16  1  0  0  0  0
M  CHG  2   7   1   9  -1
M  END
$$$$

 OpenBabel05152416213D

 25 26  0  0  0  0  0  0  0  0999 V2000
    1.4153   -0.2034    0.0327 C   0  0  0  0  0  0  0  0  0  0  0  0
    0.9045    1.0958    0.0271 C   0  0  0  0  0  0  0  0  0  0  0  0
   -0.4760    1.3088   -0.0350 C   0  0  0  0  0  0  0  0  0  0  0  0
   -1.3631    0.2163   -0.0995 C   0  0  0  0  0  0  0  0  0  0  0  0
   -0.8298   -1.0885   -0.0877 C   0  0  0  0  0  0  0  0  0  0  0  0
    0.5479   -1.2944   -0.0163 C   0  0  0  0  0  0  0  0  0  0  0  0
   -2.8295    0.4598   -0.2537 C   0  0  0  0  0  0  0  0  0  0  0  0
   -3.2242    1.5887   -0.4876 O   0  0  0  0  0  0  0  0  0  0  0  0
   -3.8163   -0.6489   -0.2814 C   0  0  0  0  0  0  0  0  0  0  0  0
   -4.6960   -0.7316   -1.3785 C   0  0  0  0  0  0  0  0  0  0  0  0
   -5.6380   -1.7602   -1.4533 C   0  0  0  0  0  0  0  0  0  0  0  0
   -5.7262   -2.7022   -0.4292 C   0  0  0  0  0  0  0  0  0  0  0  0
   -4.8656   -2.6270    0.6682 C   0  0  0  0  0  0  0  0  0  0  0  0
   -3.9089   -1.6112    0.7520 C   0  0  0  0  0  0  0  0  0  0  0  0
   -3.1233   -1.5695    1.8533 O   0  0  0  0  0  0  0  0  0  0  0  0
    2.4837   -0.3676    0.0687 H   0  0  0  0  0  0  0  0  0  0  0  0
    1.5783    1.9416    0.0602 H   0  0  0  0  0  0  0  0  0  0  0  0
   -0.8474    2.3255   -0.0462 H   0  0  0  0  0  0  0  0  0  0  0  0
   -1.4649   -1.9604   -0.1534 H   0  0  0  0  0  0  0  0  0  0  0  0
    0.9401   -2.3028   -0.0141 H   0  0  0  0  0  0  0  0  0  0  0  0
   -4.6340   -0.0156   -2.1897 H   0  0  0  0  0  0  0  0  0  0  0  0
   -6.3010   -1.8264   -2.3072 H   0  0  0  0  0  0  0  0  0  0  0  0
   -6.4644   -3.4913   -0.4810 H   0  0  0  0  0  0  0  0  0  0  0  0
   -4.9466   -3.3554    1.4634 H   0  0  0  0  0  0  0  0  0  0  0  0
   -2.4759   -0.8742    2.0261 H   0  0  0  0  0  0  0  0  0  0  0  0
  1  2  2  0  0  0  0
  1  6  1  0  0  0  0
  1 16  1  0  0  0  0
  2  3  1  0  0  0  0
  2 17  1  0  0  0  0
  3  4  2  0  0  0  0
  3 18  1  0  0  0  0
  4  5  1  0  0  0  0
  4  7  1  0  0  0  0
  5  6  2  0  0  0  0
  5 19  1  0  0  0  0
  6 20  1  0  0  0  0
  7  8  2  0  0  0  0
  7  9  1  0  0  0  0
  9 10  2  0  0  0  0
  9 14  1  0  0  0  0
 10 11  1  0  0  0  0
 10 21  1  0  0  0  0
 11 12  2  0  0  0  0
 11 22  1  0  0  0  0
 12 13  1  0  0  0  0
 12 23  1  0  0  0  0
 13 14  2  0  0  0  0
 13 24  1  0  0  0  0
 14 15  1  0  0  0  0
 15 25  1  0  0  0  0
M  END
$$$$

 OpenBabel05152416213D

 32 32  0  0  0  0  0  0  0  0999 V2000
    1.1505   -0.0196    0.0898 C   0  0  0  0  0  0  0  0  0  0  0  0
    0.5232   -1.0833    0.5847 C   0  0  0  0  0  0  0  0  0  0  0  0
   -0.9544   -1.1922    0.5218 C   0  0  0  0  0  0  0  0  0  0  0  0
   -1.2972   -2.2857   -0.2395 O   0  0  0  0  0  0  0  0  0  0  0  0
   -1.0756   -2.4145   -1.5771 C   0  0  0  0  0  0  0  0  0  0  0  0
   -0.3131   -1.6616   -2.1605 O   0  0  0  0  0  0  0  0  0  0  0  0
   -1.7724   -3.4848   -2.3288 C   0  0  0  0  0  0  0  0  0  0  0  0
   -1.0202   -4.2226   -3.2625 C   0  0  0  0  0  0  0  0  0  0  0  0
   -1.6070   -5.2613   -3.9857 C   0  0  0  0  0  0  0  0  0  0  0  0
   -2.9524   -5.5649   -3.8033 C   0  0  0  0  0  0  0  0  0  0  0  0
   -3.7201   -4.8368   -2.8954 C   0  0  0  0  0  0  0  0  0  0  0  0
   -3.1531   -3.7896   -2.1408 C   0  0  0  0  0  0  0  0  0  0  0  0
   -4.0550   -3.0208   -1.2228 C   0  0  0  0  0  0  0  0  0  0  0  0
   -5.2143   -3.3645   -1.0702 O   0  0  0  0  0  0  0  0  0  0  0  0
   -3.5853   -1.9258   -0.5728 O   0  0  0  0  0  0  0  0  0  0  0  0
   -4.2328   -1.1934    0.3878 C   0  0  0  0  0  0  0  0  0  0  0  0
   -5.3552   -0.4732   -0.2554 C   0  0  0  0  0  0  0  0  0  0  0  0
   -6.6059   -0.7310    0.0987 C   0  0  0  0  0  0  0  0  0  0  0  0
    0.5908    0.7997   -0.3559 H   0  0  0  0  0  0  0  0  0  0  0  0
    2.2293    0.0196    0.1153 H   0  0  0  0  0  0  0  0  0  0  0  0
    1.0777   -1.9094    1.0143 H   0  0  0  0  0  0  0  0  0  0  0  0
   -1.3604   -1.3205    1.5495 H   0  0  0  0  0  0  0  0  0  0  0  0
   -1.4223   -0.2807    0.0828 H   0  0  0  0  0  0  0  0  0  0  0  0
    0.0331   -4.0138   -3.4096 H   0  0  0  0  0  0  0  0  0  0  0  0
   -1.0165   -5.8347   -4.6890 H   0  0  0  0  0  0  0  0  0  0  0  0
   -3.4086   -6.3650   -4.3714 H   0  0  0  0  0  0  0  0  0  0  0  0
   -4.7671   -5.0876   -2.7925 H   0  0  0  0  0  0  0  0  0  0  0  0
   -4.5330   -1.8695    1.2181 H   0  0  0  0  0  0  0  0  0  0  0  0
   -3.5490   -0.4327    0.8174 H   0  0  0  0  0  0  0  0  0  0  0  0
   -5.1289    0.2419   -1.0423 H   0  0  0  0  0  0  0  0  0  0  0  0
   -7.4157   -0.2228   -0.4018 H   0  0  0  0  0  0  0  0  0  0  0  0
   -6.8118   -1.4647    0.8727 H   0  0  0  0  0  0  0  0  0  0  0  0
  1  2  2  0  0  0  0
  1 19  1  0  0  0  0
  1 20  1  0  0  0  0
  2  3  1  0  0  0  0
  2 21  1  0  0  0  0
  3  4  1  0  0  0  0
  3 22  1  0  0  0  0
  3 23  1  0  0  0  0
  4  5  1  0  0  0  0
  5  6  2  0  0  0  0
  5  7  1  0  0  0  0
  7  8  2  0  0  0  0
  7 12  1  0  0  0  0
  8  9  1  0  0  0  0
  8 24  1  0  0  0  0
  9 10  2  0  0  0  0
  9 25  1  0  0  0  0
 10 11  1  0  0  0  0
 10 26  1  0  0  0  0
 11 12  2  0  0  0  0
 11 27  1  0  0  0  0
 12 13  1  0  0  0  0
 13 14  2  0  0  0  0
 13 15  1  0  0  0  0
 15 16  1  0  0  0  0
 16 17  1  0  0  0  0
 16 28  1  0  0  0  0
 16 29  1  0  0  0  0
 17 18  2  0  0  0  0
 17 30  1  0  0  0  0
 18 31  1  0  0  0  0
 18 32  1  0  0  0  0
M  END
$$$$

 OpenBabel05152416213D

 40 41  0  0  0  0  0  0  0  0999 V2000
    0.7424    0.0920    0.3441 C   0  0  0  0  0  0  0  0  0  0  0  0
    0.4788    1.6017    0.1767 C   0  0  0  0  0  0  0  0  0  0  0  0
    1.1021    2.3131   -0.9877 N   0  0  0  0  0  0  0  0  0  0  0  0
    0.1340    2.9052   -2.0427 C   0  0  0  0  0  0  0  0  0  0  0  0
    0.0685    4.4765   -2.2483 C   0  0  0  0  0  0  0  0  0  0  0  0
    1.2277    5.1557   -2.5634 C   0  0  0  0  0  0  0  0  0  0  0  0
    1.3821    6.5360   -2.3014 C   0  0  0  0  0  0  0  0  0  0  0  0
    0.2932    7.3193   -2.0645 C   0  0  0  0  0  0  0  0  0  0  0  0
   -0.9608    6.7359   -2.1775 C   0  0  0  0  0  0  0  0  0  0  0  0
   -1.0911    5.3159   -2.2182 C   0  0  0  0  0  0  0  0  0  0  0  0
   -2.7028    4.6450   -2.3556 Cl  0  0  0  0  0  0  0  0  0  0  0  0
    2.2214    4.4455   -3.1117 F   0  0  0  0  0  0  0  0  0  0  0  0
    2.5915    2.3395   -1.1540 C   0  0  0  0  0  0  0  0  0  0  0  0
    3.3607    3.5636   -1.2156 C   0  0  0  0  0  0  0  0  0  0  0  0
    4.6197    3.5833   -1.8083 C   0  0  0  0  0  0  0  0  0  0  0  0
    5.3729    2.4645   -1.8854 C   0  0  0  0  0  0  0  0  0  0  0  0
    4.8147    1.2593   -1.5292 C   0  0  0  0  0  0  0  0  0  0  0  0
    3.4342    1.1560   -1.2785 C   0  0  0  0  0  0  0  0  0  0  0  0
    2.9530   -0.1604   -1.2510 N   0  3  0  0  0  0  0  0  0  0  0  0
    3.6302   -1.0334   -0.7648 O   0  0  0  0  0  0  0  0  0  0  0  0
    1.9862   -0.4878   -2.0623 O   0  5  0  0  0  0  0  0  0  0  0  0
    6.8085    2.6619   -2.2244 C   0  0  0  0  0  0  0  0  0  0  0  0
    6.9468    3.1036   -3.5290 F   0  0  0  0  0  0  0  0  0  0  0  0
    7.2959    3.6325   -1.3620 F   0  0  0  0  0  0  0  0  0  0  0  0
    7.5259    1.5016   -2.0339 F   0  0  0  0  0  0  0  0  0  0  0  0
    2.9405    4.8127   -0.6847 N   0  3  0  0  0  0  0  0  0  0  0  0
    3.6523    5.7837   -0.8246 O   0  0  0  0  0  0  0  0  0  0  0  0
    1.9280    4.8961    0.1322 O   0  5  0  0  0  0  0  0  0  0  0  0
    0.3414   -0.4553   -0.5370 H   0  0  0  0  0  0  0  0  0  0  0  0
    0.2609   -0.4448    1.1838 H   0  0  0  0  0  0  0  0  0  0  0  0
    1.7906   -0.0276    0.6589 H   0  0  0  0  0  0  0  0  0  0  0  0
   -0.6271    1.6668    0.1324 H   0  0  0  0  0  0  0  0  0  0  0  0
    0.8236    2.0819    1.1113 H   0  0  0  0  0  0  0  0  0  0  0  0
    0.3275    2.4194   -3.0181 H   0  0  0  0  0  0  0  0  0  0  0  0
   -0.9089    2.6060   -1.7837 H   0  0  0  0  0  0  0  0  0  0  0  0
    2.3323    7.0531   -2.3005 H   0  0  0  0  0  0  0  0  0  0  0  0
    0.4588    8.3826   -1.9125 H   0  0  0  0  0  0  0  0  0  0  0  0
   -1.8038    7.4092   -2.2014 H   0  0  0  0  0  0  0  0  0  0  0  0
    5.0852    4.5176   -2.1081 H   0  0  0  0  0  0  0  0  0  0  0  0
    5.4364    0.3763   -1.5548 H   0  0  0  0  0  0  0  0  0  0  0  0
  1  2  1  0  0  0  0
  1 29  1  0  0  0  0
  1 30  1  0  0  0  0
  1 31  1  0  0  0  0
  2  3  1  0  0  0  0
  2 32  1  0  0  0  0
  2 33  1  0  0  0  0
  3  4  1  0  0  0  0
  3 13  1  0  0  0  0
  4  5  1  0  0  0  0
  4 34  1  0  0  0  0
  4 35  1  0  0  0  0
  5  6  2  0  0  0  0
  5 10  1  0  0  0  0
  6  7  1  0  0  0  0
  6 12  1  0  0  0  0
  7  8  2  0  0  0  0
  7 36  1  0  0  0  0
  8  9  1  0  0  0  0
  8 37  1  0  0  0  0
  9 10  2  0  0  0  0
  9 38  1  0  0  0  0
 10 11  1  0  0  0  0
 13 14  2  0  0  0  0
 13 18  1  0  0  0  0
 14 15  1  0  0  0  0
 14 26  1  0  0  0  0
 15 16  2  0  0  0  0
 15 39  1  0  0  0  0
 16 17  1  0  0  0  0
 16 22  1  0  0  0  0
 17 18  2  0  0  0  0
 17 40  1  0  0  0  0
 18 19  1  0  0  0  0
 19 20  2  0  0  0  0
 19 21  1  0  0  0  0
 22 23  1  0  0  0  0
 22 24  1  0  0  0  0
 22 25  1  0  0  0  0
 26 27  2  0  0  0  0
 26 28  1  0  0  0  0
M  CHG  4  19   1  21  -1  26   1  28  -1
M  END
$$$$

 OpenBabel05152416213D

 26 26  0  0  0  0  0  0  0  0999 V2000
    0.9901   -0.0102    0.0476 C   0  0  0  0  0  0  0  0  0  0  0  0
    0.5394   -1.4656   -0.2044 C   0  0  0  0  0  0  0  0  0  0  0  0
    1.0815   -2.3087    0.9781 C   0  0  0  0  0  0  0  0  0  0  0  0
   -1.0008   -1.4977   -0.1867 C   0  0  0  0  0  0  0  0  0  0  0  0
    1.0085   -2.0414   -1.5681 C   0  0  0  0  0  0  0  0  0  0  0  0
    1.5764   -1.2621   -2.6272 C   0  0  0  0  0  0  0  0  0  0  0  0
    1.9208   -1.8732   -3.8408 C   0  0  0  0  0  0  0  0  0  0  0  0
    1.7321   -3.2347   -4.0349 C   0  0  0  0  0  0  0  0  0  0  0  0
    1.1884   -4.0178   -3.0164 C   0  0  0  0  0  0  0  0  0  0  0  0
    0.8249   -3.4254   -1.8062 C   0  0  0  0  0  0  0  0  0  0  0  0
    1.0008   -5.3403   -3.1890 O   0  0  0  0  0  0  0  0  0  0  0  0
    1.7715    0.0658   -2.5168 O   0  0  0  0  0  0  0  0  0  0  0  0
    0.6652    0.3435    1.0482 H   0  0  0  0  0  0  0  0  0  0  0  0
    0.5328    0.6904   -0.6796 H   0  0  0  0  0  0  0  0  0  0  0  0
    2.1009    0.0541    0.0072 H   0  0  0  0  0  0  0  0  0  0  0  0
    0.7314   -1.8874    1.9463 H   0  0  0  0  0  0  0  0  0  0  0  0
    0.7157   -3.3547    0.9576 H   0  0  0  0  0  0  0  0  0  0  0  0
    2.1914   -2.3236    0.9782 H   0  0  0  0  0  0  0  0  0  0  0  0
   -1.3984   -0.8857   -1.0270 H   0  0  0  0  0  0  0  0  0  0  0  0
   -1.3852   -2.5328   -0.3041 H   0  0  0  0  0  0  0  0  0  0  0  0
   -1.3969   -1.0828    0.7643 H   0  0  0  0  0  0  0  0  0  0  0  0
    2.3331   -1.2765   -4.6448 H   0  0  0  0  0  0  0  0  0  0  0  0
    2.0045   -3.6797   -4.9825 H   0  0  0  0  0  0  0  0  0  0  0  0
    0.3954   -4.0712   -1.0536 H   0  0  0  0  0  0  0  0  0  0  0  0
    1.2308   -5.7881   -4.0157 H   0  0  0  0  0  0  0  0  0  0  0  0
    2.1193    0.6130   -3.2361 H   0  0  0  0  0  0  0  0  0  0  0  0
  1  2  1  0  0  0  0
  1 13  1  0  0  0  0
  1 14  1  0  0  0  0
  1 15  1  0  0  0  0
  2  3  1  0  0  0  0
  2  4  1  0  0  0  0
  2  5  1  0  0  0  0
  3 16  1  0  0  0  0
  3 17  1  0  0  0  0
  3 18  1  0  0  0  0
  4 19  1  0  0  0  0
  4 20  1  0  0  0  0
  4 21  1  0  0  0  0
  5  6  2  0  0  0  0
  5 10  1  0  0  0  0
  6  7  1  0  0  0  0
  6 12  1  0  0  0  0
  7  8  2  0  0  0  0
  7 22  1  0  0  0  0
  8  9  1  0  0  0  0
  8 23  1  0  0  0  0
  9 10  2  0  0  0  0
  9 11  1  0  0  0  0
 10 24  1  0  0  0  0
 11 25  1  0  0  0  0
 12 26  1  0  0  0  0
M  END
$$$$

 OpenBabel05152416213D

 51 51  0  0  0  0  0  0  0  0999 V2000
    2.7257   -1.1266    0.0207 C   0  0  0  0  0  0  0  0  0  0  0  0
    1.3636   -0.4409    0.0097 C   0  0  0  0  0  0  0  0  0  0  0  0
    0.1371   -1.0742    0.1303 C   0  0  0  0  0  0  0  0  0  0  0  0
   -1.1838   -0.2571   -0.0158 C   0  0  0  0  0  0  0  0  0  0  0  0
   -0.9216    1.1817   -0.5545 C   0  0  0  0  0  0  0  0  0  0  0  0
    0.2316    1.8464    0.1505 C   0  0  0  0  0  0  0  0  0  0  0  0
    1.4999    1.0649   -0.1619 C   0  0  0  0  0  0  0  0  0  0  0  0
   -2.1324   -0.8675   -1.0975 C   0  0  0  0  0  0  0  0  0  0  0  0
   -1.8730   -0.1648    1.3737 C   0  0  0  0  0  0  0  0  0  0  0  0
    0.0746   -2.5656    0.3917 C   0  0  0  0  0  0  0  0  0  0  0  0
   -1.0337   -3.3009    0.6303 C   0  0  0  0  0  0  0  0  0  0  0  0
   -1.0297   -4.7718    0.8306 C   0  0  0  0  0  0  0  0  0  0  0  0
   -2.2317   -5.4032    0.9170 C   0  0  0  0  0  0  0  0  0  0  0  0
   -2.3650   -6.8559    1.1229 C   0  0  0  0  0  0  0  0  0  0  0  0
   -3.5248   -7.5227    1.2137 C   0  0  0  0  0  0  0  0  0  0  0  0
   -3.5272   -9.0049    1.4641 C   0  0  0  0  0  0  0  0  0  0  0  0
   -4.7146   -9.6417    1.5719 C   0  0  0  0  0  0  0  0  0  0  0  0
   -4.9104  -11.1162    1.8502 C   0  0  0  0  0  0  0  0  0  0  0  0
   -5.6289  -11.2767    3.0398 O   0  0  0  0  0  0  0  0  0  0  0  0
   -2.1879   -9.7195    1.6088 C   0  0  0  0  0  0  0  0  0  0  0  0
    0.3179   -5.4747    0.9178 C   0  0  0  0  0  0  0  0  0  0  0  0
    3.2376   -0.9054   -0.9398 H   0  0  0  0  0  0  0  0  0  0  0  0
    3.3416   -0.7136    0.8469 H   0  0  0  0  0  0  0  0  0  0  0  0
    2.7593   -2.2179    0.1286 H   0  0  0  0  0  0  0  0  0  0  0  0
   -0.6523    1.1522   -1.6362 H   0  0  0  0  0  0  0  0  0  0  0  0
   -1.8461    1.7935   -0.4626 H   0  0  0  0  0  0  0  0  0  0  0  0
    0.3572    2.8933   -0.2011 H   0  0  0  0  0  0  0  0  0  0  0  0
    0.0475    1.8794    1.2420 H   0  0  0  0  0  0  0  0  0  0  0  0
    2.2814    1.4659    0.5205 H   0  0  0  0  0  0  0  0  0  0  0  0
    1.8310    1.2522   -1.2064 H   0  0  0  0  0  0  0  0  0  0  0  0
   -2.5058   -1.8882   -0.9667 H   0  0  0  0  0  0  0  0  0  0  0  0
   -3.0494   -0.2496   -1.1915 H   0  0  0  0  0  0  0  0  0  0  0  0
   -1.6157   -0.8940   -2.0808 H   0  0  0  0  0  0  0  0  0  0  0  0
   -2.8173    0.4124    1.3030 H   0  0  0  0  0  0  0  0  0  0  0  0
   -2.1225   -1.1365    1.8281 H   0  0  0  0  0  0  0  0  0  0  0  0
   -1.2135    0.3296    2.1149 H   0  0  0  0  0  0  0  0  0  0  0  0
    0.9906   -3.1143    0.3849 H   0  0  0  0  0  0  0  0  0  0  0  0
   -2.0050   -2.8621    0.6897 H   0  0  0  0  0  0  0  0  0  0  0  0
   -3.1527   -4.8244    0.8301 H   0  0  0  0  0  0  0  0  0  0  0  0
   -1.4709   -7.4175    1.2190 H   0  0  0  0  0  0  0  0  0  0  0  0
   -4.4658   -6.9798    1.1206 H   0  0  0  0  0  0  0  0  0  0  0  0
   -5.6290   -9.0618    1.4670 H   0  0  0  0  0  0  0  0  0  0  0  0
   -5.4912  -11.5543    1.0144 H   0  0  0  0  0  0  0  0  0  0  0  0
   -3.9964  -11.7304    1.9104 H   0  0  0  0  0  0  0  0  0  0  0  0
   -5.0293  -10.9671    3.7702 H   0  0  0  0  0  0  0  0  0  0  0  0
   -1.6061   -9.5890    0.6717 H   0  0  0  0  0  0  0  0  0  0  0  0
   -1.6316   -9.2717    2.4602 H   0  0  0  0  0  0  0  0  0  0  0  0
   -2.2066  -10.7972    1.8032 H   0  0  0  0  0  0  0  0  0  0  0  0
    0.8705   -5.3162   -0.0304 H   0  0  0  0  0  0  0  0  0  0  0  0
    0.8850   -5.0393    1.7656 H   0  0  0  0  0  0  0  0  0  0  0  0
    0.3216   -6.5589    1.0797 H   0  0  0  0  0  0  0  0  0  0  0  0
  1  2  1  0  0  0  0
  1 22  1  0  0  0  0
  1 23  1  0  0  0  0
  1 24  1  0  0  0  0
  2  3  2  0  0  0  0
  2  7  1  0  0  0  0
  3  4  1  0  0  0  0
  3 10  1  0  0  0  0
  4  5  1  0  0  0  0
  4  8  1  0  0  0  0
  4  9  1  0  0  0  0
  5  6  1  0  0  0  0
  5 25  1  0  0  0  0
  5 26  1  0  0  0  0
  6  7  1  0  0  0  0
  6 27  1  0  0  0  0
  6 28  1  0  0  0  0
  7 29  1  0  0  0  0
  7 30  1  0  0  0  0
  8 31  1  0  0  0  0
  8 32  1  0  0  0  0
  8 33  1  0  0  0  0
  9 34  1  0  0  0  0
  9 35  1  0  0  0  0
  9 36  1  0  0  0  0
 10 11  2  0  0  0  0
 10 37  1  0  0  0  0
 11 12  1  0  0  0  0
 11 38  1  0  0  0  0
 12 13  2  0  0  0  0
 12 21  1  0  0  0  0
 13 14  1  0  0  0  0
 13 39  1  0  0  0  0
 14 15  2  0  0  0  0
 14 40  1  0  0  0  0
 15 16  1  0  0  0  0
 15 41  1  0  0  0  0
 16 17  2  0  0  0  0
 16 20  1  0  0  0  0
 17 18  1  0  0  0  0
 17 42  1  0  0  0  0
 18 19  1  0  0  0  0
 18 43  1  0  0  0  0
 18 44  1  0  0  0  0
 19 45  1  0  0  0  0
 20 46  1  0  0  0  0
 20 47  1  0  0  0  0
 20 48  1  0  0  0  0
 21 49  1  0  0  0  0
 21 50  1  0  0  0  0
 21 51  1  0  0  0  0
M  END
$$$$

 OpenBabel05152416213D

 38 39  0  0  0  0  0  0  0  0999 V2000
    1.0046   -0.2293   -0.3620 C   0  0  0  0  0  0  0  0  0  0  0  0
    0.4888    1.2237   -0.4246 C   0  0  0  0  0  0  0  0  0  0  0  0
    0.9781    1.7707   -1.7902 C   0  0  0  0  0  0  0  0  0  0  0  0
   -1.0440    1.2738   -0.3803 C   0  0  0  0  0  0  0  0  0  0  0  0
    1.1112    2.0897    0.7090 C   0  0  0  0  0  0  0  0  0  0  0  0
    0.6622    1.8860    2.2383 C   0  0  0  0  0  0  0  0  0  0  0  0
    1.0019    0.5339    2.7390 N   0  0  0  0  0  0  0  0  0  0  0  0
    2.1889    0.0771    3.1792 C   0  0  0  0  0  0  0  0  0  0  0  0
    2.2061   -1.2622    3.2625 N   0  0  0  0  0  0  0  0  0  0  0  0
    0.9628   -1.6064    2.8826 C   0  0  0  0  0  0  0  0  0  0  0  0
    0.2034   -0.5269    2.6074 N   0  0  0  0  0  0  0  0  0  0  0  0
    1.1379    2.8951    3.1102 O   0  0  0  0  0  0  0  0  0  0  0  0
    2.4519    3.1673    3.3559 C   0  0  0  0  0  0  0  0  0  0  0  0
    3.3372    3.5301    2.3302 C   0  0  0  0  0  0  0  0  0  0  0  0
    4.7053    3.5234    2.5187 C   0  0  0  0  0  0  0  0  0  0  0  0
    5.2215    3.3236    3.7892 C   0  0  0  0  0  0  0  0  0  0  0  0
    4.3490    3.1366    4.8717 C   0  0  0  0  0  0  0  0  0  0  0  0
    2.9643    3.0333    4.6533 C   0  0  0  0  0  0  0  0  0  0  0  0
    6.9581    3.3561    4.0058 Cl  0  0  0  0  0  0  0  0  0  0  0  0
    2.4906    1.9354    0.4969 O   0  0  0  0  0  0  0  0  0  0  0  0
    0.6536   -0.8421   -1.2047 H   0  0  0  0  0  0  0  0  0  0  0  0
    0.6161   -0.7433    0.4778 H   0  0  0  0  0  0  0  0  0  0  0  0
    2.1155   -0.2927   -0.3148 H   0  0  0  0  0  0  0  0  0  0  0  0
    0.6052    1.1242   -2.6106 H   0  0  0  0  0  0  0  0  0  0  0  0
    0.6417    2.8149   -1.9598 H   0  0  0  0  0  0  0  0  0  0  0  0
    2.0902    1.7583   -1.8567 H   0  0  0  0  0  0  0  0  0  0  0  0
   -1.4290    0.9030    0.5906 H   0  0  0  0  0  0  0  0  0  0  0  0
   -1.4021    2.3174   -0.5274 H   0  0  0  0  0  0  0  0  0  0  0  0
   -1.4624    0.6281   -1.1774 H   0  0  0  0  0  0  0  0  0  0  0  0
    0.8269    3.1501    0.4956 H   0  0  0  0  0  0  0  0  0  0  0  0
   -0.4453    1.9842    2.2609 H   0  0  0  0  0  0  0  0  0  0  0  0
    3.0589    0.6831    3.3697 H   0  0  0  0  0  0  0  0  0  0  0  0
    0.6549   -2.6340    2.7138 H   0  0  0  0  0  0  0  0  0  0  0  0
    2.9988    3.7926    1.3524 H   0  0  0  0  0  0  0  0  0  0  0  0
    5.3515    3.6752    1.6618 H   0  0  0  0  0  0  0  0  0  0  0  0
    4.7473    3.0332    5.8689 H   0  0  0  0  0  0  0  0  0  0  0  0
    2.2981    2.8199    5.4798 H   0  0  0  0  0  0  0  0  0  0  0  0
    2.8487    1.2471    1.0989 H   0  0  0  0  0  0  0  0  0  0  0  0
  1  2  1  0  0  0  0
  1 21  1  0  0  0  0
  1 22  1  0  0  0  0
  1 23  1  0  0  0  0
  2  3  1  0  0  0  0
  2  4  1  0  0  0  0
  2  5  1  0  0  0  0
  3 24  1  0  0  0  0
  3 25  1  0  0  0  0
  3 26  1  0  0  0  0
  4 27  1  0  0  0  0
  4 28  1  0  0  0  0
  4 29  1  0  0  0  0
  5  6  1  0  0  0  0
  5 20  1  0  0  0  0
  5 30  1  0  0  0  0
  6  7  1  0  0  0  0
  6 12  1  0  0  0  0
  6 31  1  0  0  0  0
  7  8  1  0  0  0  0
  7 11  1  0  0  0  0
  8  9  2  0  0  0  0
  8 32  1  0  0  0  0
  9 10  1  0  0  0  0
 10 11  2  0  0  0  0
 10 33  1  0  0  0  0
 12 13  1  0  0  0  0
 13 14  2  0  0  0  0
 13 18  1  0  0  0  0
 14 15  1  0  0  0  0
 14 34  1  0  0  0  0
 15 16  2  0  0  0  0
 15 35  1  0  0  0  0
 16 17  1  0  0  0  0
 16 19  1  0  0  0  0
 17 18  2  0  0  0  0
 17 36  1  0  0  0  0
 18 37  1  0  0  0  0
 20 38  1  0  0  0  0
M  END
$$$$

 OpenBabel05152416213D

 77 76  0  0  0  0  0  0  0  0999 V2000
    0.9931    0.0698   -0.0582 C   0  0  0  0  0  0  0  0  0  0  0  0
    0.5130    0.9898   -1.2001 C   0  0  0  0  0  0  0  0  0  0  0  0
    1.0044    0.5312   -2.5928 C   0  0  0  0  0  0  0  0  0  0  0  0
    0.4274   -0.8308   -2.9267 C   0  0  0  0  0  0  0  0  0  0  0  0
   -1.2046   -0.9279   -2.9457 C   0  0  0  0  0  0  0  0  0  0  0  0
   -1.6291   -0.0053   -4.0243 C   0  0  0  0  0  0  0  0  0  0  0  0
   -1.0752   -0.5397   -5.3759 C   0  0  0  0  0  0  0  0  0  0  0  0
   -2.1318   -2.1235   -3.3414 C   0  0  0  0  0  0  0  0  0  0  0  0
   -3.1364   -2.3380   -2.6557 O   0  0  0  0  0  0  0  0  0  0  0  0
   -1.6566   -3.1051   -4.1512 O   0  0  0  0  0  0  0  0  0  0  0  0
   -2.1429   -4.4023   -4.2992 C   0  0  0  0  0  0  0  0  0  0  0  0
   -2.2281   -5.2999   -3.0056 C   0  0  0  0  0  0  0  0  0  0  0  0
   -2.2198   -4.7883   -1.6691 O   0  0  0  0  0  0  0  0  0  0  0  0
   -1.1930   -3.8326   -1.2991 C   0  0  0  0  0  0  0  0  0  0  0  0
    0.1721   -3.4078   -2.0069 C   0  0  0  0  0  0  0  0  0  0  0  0
    0.7711   -4.0351   -3.1386 O   0  0  0  0  0  0  0  0  0  0  0  0
    0.6993   -5.4799   -3.1850 C   0  0  0  0  0  0  0  0  0  0  0  0
    0.3092   -6.4503   -1.9509 C   0  0  0  0  0  0  0  0  0  0  0  0
    0.4978   -6.3662   -0.5095 O   0  0  0  0  0  0  0  0  0  0  0  0
    1.1466   -5.2062    0.0260 C   0  0  0  0  0  0  0  0  0  0  0  0
    2.6165   -4.7661   -0.4190 C   0  0  0  0  0  0  0  0  0  0  0  0
    3.0902   -5.1591   -1.6377 O   0  0  0  0  0  0  0  0  0  0  0  0
    3.1014   -6.4784   -2.0936 C   0  0  0  0  0  0  0  0  0  0  0  0
    2.7800   -7.3383   -1.2968 O   0  0  0  0  0  0  0  0  0  0  0  0
    3.2674   -6.8059   -3.5847 C   0  0  0  0  0  0  0  0  0  0  0  0
    2.8419   -5.9450   -4.8509 C   0  0  0  0  0  0  0  0  0  0  0  0
    3.2022   -4.4667   -4.6938 C   0  0  0  0  0  0  0  0  0  0  0  0
    4.7533   -6.8762   -3.6108 C   0  0  0  0  0  0  0  0  0  0  0  0
    5.2847   -7.8309   -2.5118 C   0  0  0  0  0  0  0  0  0  0  0  0
    4.6486   -9.2165   -2.6739 C   0  0  0  0  0  0  0  0  0  0  0  0
    5.0667   -9.7615   -4.0188 C   0  0  0  0  0  0  0  0  0  0  0  0
    0.5886   -0.9601   -0.1305 H   0  0  0  0  0  0  0  0  0  0  0  0
    0.6299    0.4467    0.9138 H   0  0  0  0  0  0  0  0  0  0  0  0
    2.1031    0.0157   -0.0651 H   0  0  0  0  0  0  0  0  0  0  0  0
   -0.5909    1.0443   -1.1716 H   0  0  0  0  0  0  0  0  0  0  0  0
    0.8932    2.0068   -1.0305 H   0  0  0  0  0  0  0  0  0  0  0  0
    0.7385    1.2198   -3.3987 H   0  0  0  0  0  0  0  0  0  0  0  0
    2.1285    0.4846   -2.5852 H   0  0  0  0  0  0  0  0  0  0  0  0
    0.9387   -1.3042   -3.7757 H   0  0  0  0  0  0  0  0  0  0  0  0
    1.0074   -1.2366   -2.1709 H   0  0  0  0  0  0  0  0  0  0  0  0
   -1.5345   -0.6565   -1.9136 H   0  0  0  0  0  0  0  0  0  0  0  0
   -2.7385    0.0565   -4.0116 H   0  0  0  0  0  0  0  0  0  0  0  0
   -1.2787    1.0021   -3.8023 H   0  0  0  0  0  0  0  0  0  0  0  0
   -1.4191   -1.5450   -5.6597 H   0  0  0  0  0  0  0  0  0  0  0  0
   -1.4289    0.0864   -6.1719 H   0  0  0  0  0  0  0  0  0  0  0  0
    0.0281   -0.6035   -5.4171 H   0  0  0  0  0  0  0  0  0  0  0  0
   -3.1696   -4.3839   -4.5899 H   0  0  0  0  0  0  0  0  0  0  0  0
   -1.5506   -4.8349   -5.1760 H   0  0  0  0  0  0  0  0  0  0  0  0
   -2.2685   -6.4162   -3.1923 H   0  0  0  0  0  0  0  0  0  0  0  0
   -1.4005   -5.5643   -2.9168 H   0  0  0  0  0  0  0  0  0  0  0  0
   -1.0323   -3.4559   -2.1684 H   0  0  0  0  0  0  0  0  0  0  0  0
   -1.5820   -3.0285   -0.6408 H   0  0  0  0  0  0  0  0  0  0  0  0
    0.8897   -2.9092   -1.2961 H   0  0  0  0  0  0  0  0  0  0  0  0
    0.9334   -2.9992   -1.2735 H   0  0  0  0  0  0  0  0  0  0  0  0
    0.0979   -5.7841   -4.0941 H   0  0  0  0  0  0  0  0  0  0  0  0
    0.2836   -5.8451   -4.1607 H   0  0  0  0  0  0  0  0  0  0  0  0
    0.4744   -7.5064   -2.2791 H   0  0  0  0  0  0  0  0  0  0  0  0
    1.0818   -5.8902   -2.1697 H   0  0  0  0  0  0  0  0  0  0  0  0
    0.5352   -4.6602   -0.3274 H   0  0  0  0  0  0  0  0  0  0  0  0
    0.6846   -4.5945    0.8492 H   0  0  0  0  0  0  0  0  0  0  0  0
    2.8340   -3.6487   -0.3690 H   0  0  0  0  0  0  0  0  0  0  0  0
    3.1647   -5.2259    0.3887 H   0  0  0  0  0  0  0  0  0  0  0  0
    2.7328   -7.7779   -3.7997 H   0  0  0  0  0  0  0  0  0  0  0  0
    3.2071   -6.3770   -5.8039 H   0  0  0  0  0  0  0  0  0  0  0  0
    1.8413   -6.0677   -5.2543 H   0  0  0  0  0  0  0  0  0  0  0  0
    4.2864   -4.3716   -4.7284 H   0  0  0  0  0  0  0  0  0  0  0  0
    2.6930   -3.8549   -5.4648 H   0  0  0  0  0  0  0  0  0  0  0  0
    2.9577   -4.0325   -3.7139 H   0  0  0  0  0  0  0  0  0  0  0  0
    5.0599   -7.1483   -4.6296 H   0  0  0  0  0  0  0  0  0  0  0  0
    5.1204   -5.8542   -3.4126 H   0  0  0  0  0  0  0  0  0  0  0  0
    6.3731   -7.8030   -2.5410 H   0  0  0  0  0  0  0  0  0  0  0  0
    5.0853   -7.4914   -1.4680 H   0  0  0  0  0  0  0  0  0  0  0  0
    4.9817   -9.8450   -1.8371 H   0  0  0  0  0  0  0  0  0  0  0  0
    3.5333   -9.2365   -2.6029 H   0  0  0  0  0  0  0  0  0  0  0  0
    6.1739   -9.7220   -4.0498 H   0  0  0  0  0  0  0  0  0  0  0  0
    4.6768  -10.7769   -4.1433 H   0  0  0  0  0  0  0  0  0  0  0  0
    4.6546   -9.1656   -4.8604 H   0  0  0  0  0  0  0  0  0  0  0  0
  1  2  1  0  0  0  0
  1 32  1  0  0  0  0
  1 33  1  0  0  0  0
  1 34  1  0  0  0  0
  2  3  1  0  0  0  0
  2 35  1  0  0  0  0
  2 36  1  0  0  0  0
  3  4  1  0  0  0  0
  3 37  1  0  0  0  0
  3 38  1  0  0  0  0
  4  5  1  0  0  0  0
  4 39  1  0  0  0  0
  4 40  1  0  0  0  0
  5  6  1  0  0  0  0
  5  8  1  0  0  0  0
  5 41  1  0  0  0  0
  6  7  1  0  0  0  0
  6 42  1  0  0  0  0
  6 43  1  0  0  0  0
  7 44  1  0  0  0  0
  7 45  1  0  0  0  0
  7 46  1  0  0  0  0
  8  9  2  0  0  0  0
  8 10  1  0  0  0  0
 10 11  1  0  0  0  0
 11 12  1  0  0  0  0
 11 47  1  0  0  0  0
 11 48  1  0  0  0  0
 12 13  1  0  0  0  0
 12 49  1  0  0  0  0
 12 50  1  0  0  0  0
 13 14  1  0  0  0  0
 14 15  1  0  0  0  0
 14 51  1  0  0  0  0
 14 52  1  0  0  0  0
 15 16  1  0  0  0  0
 15 53  1  0  0  0  0
 15 54  1  0  0  0  0
 16 17  1  0  0  0  0
 17 18  1  0  0  0  0
 17 55  1  0  0  0  0
 17 56  1  0  0  0  0
 18 19  1  0  0  0  0
 18 57  1  0  0  0  0
 18 58  1  0  0  0  0
 19 20  1  0  0  0  0
 20 21  1  0  0  0  0
 20 59  1  0  0  0  0
 20 60  1  0  0  0  0
 21 22  1  0  0  0  0
 21 61  1  0  0  0  0
 21 62  1  0  0  0  0
 22 23  1  0  0  0  0
 23 24  2  0  0  0  0
 23 25  1  0  0  0  0
 25 26  1  0  0  0  0
 25 28  1  0  0  0  0
 25 63  1  0  0  0  0
 26 27  1  0  0  0  0
 26 64  1  0  0  0  0
 26 65  1  0  0  0  0
 27 66  1  0  0  0  0
 27 67  1  0  0  0  0
 27 68  1  0  0  0  0
 28 29  1  0  0  0  0
 28 69  1  0  0  0  0
 28 70  1  0  0  0  0
 29 30  1  0  0  0  0
 29 71  1  0  0  0  0
 29 72  1  0  0  0  0
 30 31  1  0  0  0  0
 30 73  1  0  0  0  0
 30 74  1  0  0  0  0
 31 75  1  0  0  0  0
 31 76  1  0  0  0  0
 31 77  1  0  0  0  0
M  END
$$$$

 OpenBabel05152416213D

 72 72  0  0  1  0  0  0  0  0999 V2000
    2.2172  -14.0882    4.1259 C   0  0  0  0  0  0  0  0  0  0  0  0
    2.1445  -12.9832    3.0740 C   0  0  0  0  0  0  0  0  0  0  0  0
    0.7214  -12.8876    2.4986 C   0  0  0  0  0  0  0  0  0  0  0  0
   -0.3105  -12.5585    3.5985 C   0  0  0  0  0  0  0  0  0  0  0  0
    0.0402  -11.2258    4.2942 C   0  0  0  0  0  0  0  0  0  0  0  0
    0.0351  -10.0739    3.2656 C   0  0  0  0  0  0  0  0  0  0  0  0
   -1.3566   -9.9620    2.6020 C   0  0  0  0  0  0  0  0  0  0  0  0
   -2.4236   -9.7071    3.6722 C   0  0  0  0  0  0  0  0  0  0  0  0
   -2.1078   -8.4015    4.3922 C   0  0  0  0  0  0  0  0  0  0  0  0
   -2.1651   -7.2086    3.4132 C   0  0  0  0  0  0  0  0  0  0  0  0
   -3.5575   -7.0458    2.7517 C   0  0  0  0  0  0  0  0  0  0  0  0
   -4.6832   -6.8529    3.7434 C   0  0  0  0  0  0  0  0  0  0  0  0
   -5.3216   -5.7867    3.7145 O   0  0  0  0  0  0  0  0  0  0  0  0
   -4.9536   -7.7728    4.6897 O   0  0  0  0  0  0  0  0  0  0  0  0
   -5.7305   -7.6240    5.8339 C   0  0  0  0  0  0  0  0  0  0  0  0
   -5.2603   -6.4485    6.7025 C   0  0  2  0  0  0  0  0  0  0  0  0
   -3.7111   -6.4351    6.8339 C   0  0  2  0  0  0  0  0  0  0  0  0
   -3.1272   -5.8146    8.0775 C   0  0  1  0  0  0  0  0  0  0  0  0
   -1.7515   -5.4156    7.6245 C   0  0  2  0  0  0  0  0  0  0  0  0
   -2.0192   -5.0571    6.1348 C   0  0  0  0  0  0  0  0  0  0  0  0
   -3.0934   -5.8589    5.7040 O   0  0  0  0  0  0  0  0  0  0  0  0
   -0.7208   -6.4013    7.6983 O   0  0  0  0  0  0  0  0  0  0  0  0
    0.2805   -6.0464    8.6823 C   0  0  0  0  0  0  0  0  0  0  0  0
    1.0579   -4.6974    8.4924 C   0  0  0  0  0  0  0  0  0  0  0  0
    0.2739   -3.5504    8.6128 O   0  0  0  0  0  0  0  0  0  0  0  0
   -3.8573   -4.7287    8.6907 O   0  0  0  0  0  0  0  0  0  0  0  0
   -4.2598   -3.6409    7.8672 C   0  0  0  0  0  0  0  0  0  0  0  0
   -3.3552   -2.4014    7.9413 C   0  0  0  0  0  0  0  0  0  0  0  0
   -2.0107   -2.6782    7.9603 O   0  0  0  0  0  0  0  0  0  0  0  0
   -5.8982   -6.5008    7.9554 O   0  0  0  0  0  0  0  0  0  0  0  0
    1.5530  -13.8859    4.9914 H   0  0  0  0  0  0  0  0  0  0  0  0
    3.2406  -14.1626    4.5318 H   0  0  0  0  0  0  0  0  0  0  0  0
    1.9131  -15.0467    3.6560 H   0  0  0  0  0  0  0  0  0  0  0  0
    2.4765  -12.0190    3.5153 H   0  0  0  0  0  0  0  0  0  0  0  0
    2.8565  -13.1943    2.2539 H   0  0  0  0  0  0  0  0  0  0  0  0
    0.7029  -12.1258    1.6901 H   0  0  0  0  0  0  0  0  0  0  0  0
    0.4443  -13.8373    2.0031 H   0  0  0  0  0  0  0  0  0  0  0  0
   -1.3288  -12.5479    3.1646 H   0  0  0  0  0  0  0  0  0  0  0  0
   -0.3842  -13.3649    4.3469 H   0  0  0  0  0  0  0  0  0  0  0  0
   -0.6563  -11.0465    5.1353 H   0  0  0  0  0  0  0  0  0  0  0  0
    1.0128  -11.2651    4.8146 H   0  0  0  0  0  0  0  0  0  0  0  0
    0.3541   -9.1351    3.7555 H   0  0  0  0  0  0  0  0  0  0  0  0
    0.8085  -10.1955    2.4890 H   0  0  0  0  0  0  0  0  0  0  0  0
   -1.3495   -9.1770    1.8277 H   0  0  0  0  0  0  0  0  0  0  0  0
   -1.6304  -10.8574    2.0208 H   0  0  0  0  0  0  0  0  0  0  0  0
   -3.4347   -9.6900    3.2317 H   0  0  0  0  0  0  0  0  0  0  0  0
   -2.5062  -10.5306    4.4072 H   0  0  0  0  0  0  0  0  0  0  0  0
   -2.8227   -8.3407    5.1865 H   0  0  0  0  0  0  0  0  0  0  0  0
   -1.1474   -8.4135    4.9484 H   0  0  0  0  0  0  0  0  0  0  0  0
   -1.8609   -6.2817    3.8894 H   0  0  0  0  0  0  0  0  0  0  0  0
   -1.3740   -7.2879    2.6461 H   0  0  0  0  0  0  0  0  0  0  0  0
   -3.4931   -6.1787    2.0729 H   0  0  0  0  0  0  0  0  0  0  0  0
   -3.7840   -7.9289    2.1241 H   0  0  0  0  0  0  0  0  0  0  0  0
   -6.8022   -7.4999    5.5791 H   0  0  0  0  0  0  0  0  0  0  0  0
   -5.6139   -8.5440    6.4476 H   0  0  0  0  0  0  0  0  0  0  0  0
   -5.6044   -5.5196    6.2060 H   0  0  0  0  0  0  0  0  0  0  0  0
   -3.3583   -7.4710    6.9070 H   0  0  0  0  0  0  0  0  0  0  0  0
   -3.0695   -6.6028    8.8602 H   0  0  0  0  0  0  0  0  0  0  0  0
   -1.5656   -4.7143    8.4074 H   0  0  0  0  0  0  0  0  0  0  0  0
   -2.3792   -4.0665    5.8258 H   0  0  0  0  0  0  0  0  0  0  0  0
   -1.0872   -5.1511    5.5267 H   0  0  0  0  0  0  0  0  0  0  0  0
   -0.1749   -6.0778    9.6953 H   0  0  0  0  0  0  0  0  0  0  0  0
    1.0731   -6.8246    8.6707 H   0  0  0  0  0  0  0  0  0  0  0  0
    1.8045   -4.5922    9.3049 H   0  0  0  0  0  0  0  0  0  0  0  0
    1.6109   -4.6903    7.5276 H   0  0  0  0  0  0  0  0  0  0  0  0
    0.2811   -3.1213    7.7197 H   0  0  0  0  0  0  0  0  0  0  0  0
   -4.4377   -3.9138    6.8207 H   0  0  0  0  0  0  0  0  0  0  0  0
   -5.2447   -3.2889    8.2474 H   0  0  0  0  0  0  0  0  0  0  0  0
   -3.5746   -1.7413    7.0719 H   0  0  0  0  0  0  0  0  0  0  0  0
   -3.5123   -1.8667    8.8879 H   0  0  0  0  0  0  0  0  0  0  0  0
   -1.6779   -2.6818    7.0376 H   0  0  0  0  0  0  0  0  0  0  0  0
   -5.4158   -7.1620    8.5153 H   0  0  0  0  0  0  0  0  0  0  0  0
  1  2  1  0  0  0  0
  1 31  1  0  0  0  0
  1 32  1  0  0  0  0
  1 33  1  0  0  0  0
  2  3  1  0  0  0  0
  2 34  1  0  0  0  0
  2 35  1  0  0  0  0
  3  4  1  0  0  0  0
  3 36  1  0  0  0  0
  3 37  1  0  0  0  0
  4  5  1  0  0  0  0
  4 38  1  0  0  0  0
  4 39  1  0  0  0  0
  5  6  1  0  0  0  0
  5 40  1  0  0  0  0
  5 41  1  0  0  0  0
  6  7  1  0  0  0  0
  6 42  1  0  0  0  0
  6 43  1  0  0  0  0
  7  8  1  0  0  0  0
  7 44  1  0  0  0  0
  7 45  1  0  0  0  0
  8  9  1  0  0  0  0
  8 46  1  0  0  0  0
  8 47  1  0  0  0  0
  9 10  1  0  0  0  0
  9 48  1  0  0  0  0
  9 49  1  0  0  0  0
 10 11  1  0  0  0  0
 10 50  1  0  0  0  0
 10 51  1  0  0  0  0
 11 12  1  0  0  0  0
 11 52  1  0  0  0  0
 11 53  1  0  0  0  0
 12 13  2  0  0  0  0
 12 14  1  0  0  0  0
 14 15  1  0  0  0  0
 15 54  1  0  0  0  0
 15 55  1  0  0  0  0
 16 30  1  0  0  0  0
 16 56  1  6  0  0  0
 16 17  1  0  0  0  0
 16 15  1  0  0  0  0
 17 18  1  0  0  0  0
 17 21  1  0  0  0  0
 17 57  1  1  0  0  0
 18 19  1  0  0  0  0
 18 26  1  0  0  0  0
 18 58  1  1  0  0  0
 19 20  1  0  0  0  0
 19 59  1  1  0  0  0
 19 22  1  0  0  0  0
 20 21  1  0  0  0  0
 20 60  1  0  0  0  0
 20 61  1  0  0  0  0
 22 23  1  0  0  0  0
 23 24  1  0  0  0  0
 23 62  1  0  0  0  0
 23 63  1  0  0  0  0
 24 25  1  0  0  0  0
 24 64  1  0  0  0  0
 24 65  1  0  0  0  0
 25 66  1  0  0  0  0
 26 27  1  0  0  0  0
 27 28  1  0  0  0  0
 27 67  1  0  0  0  0
 27 68  1  0  0  0  0
 28 29  1  0  0  0  0
 28 69  1  0  0  0  0
 28 70  1  0  0  0  0
 29 71  1  0  0  0  0
 30 72  1  0  0  0  0
M  END
$$$$

 OpenBabel05152416213D

 40 39  0  0  0  0  0  0  0  0999 V2000
    1.0013    0.0134    0.0353 C   0  0  0  0  0  0  0  0  0  0  0  0
    0.5180   -1.3691   -0.3603 C   0  0  0  0  0  0  0  0  0  0  0  0
   -0.3402   -2.0531    0.3925 C   0  0  0  0  0  0  0  0  0  0  0  0
    1.0416   -1.9567   -1.5994 C   0  0  0  0  0  0  0  0  0  0  0  0
    2.0332   -1.4407   -2.0615 O   0  0  0  0  0  0  0  0  0  0  0  0
    0.4382   -3.0514   -2.1894 O   0  0  0  0  0  0  0  0  0  0  0  0
    0.6791   -3.6049   -3.4513 C   0  0  0  0  0  0  0  0  0  0  0  0
    0.1655   -2.7183   -4.6012 C   0  0  0  0  0  0  0  0  0  0  0  0
    0.8306   -1.3672   -4.5773 C   0  0  0  0  0  0  0  0  0  0  0  0
    2.4018   -1.4860   -4.6951 C   0  0  0  0  0  0  0  0  0  0  0  0
    2.8318   -1.8315   -6.0965 C   0  0  0  0  0  0  0  0  0  0  0  0
    2.3424   -0.7703   -7.0998 C   0  0  0  0  0  0  0  0  0  0  0  0
    2.8371    0.5084   -6.8224 O   0  0  0  0  0  0  0  0  0  0  0  0
    2.5027    1.3545   -5.7819 C   0  0  0  0  0  0  0  0  0  0  0  0
    1.5538    1.1460   -5.0615 O   0  0  0  0  0  0  0  0  0  0  0  0
    3.2763    2.5711   -5.5053 C   0  0  0  0  0  0  0  0  0  0  0  0
    4.1072    3.0574   -6.4242 C   0  0  0  0  0  0  0  0  0  0  0  0
    3.0792    3.2545   -4.1653 C   0  0  0  0  0  0  0  0  0  0  0  0
    0.6104    0.3281    1.0231 H   0  0  0  0  0  0  0  0  0  0  0  0
    0.6688    0.7581   -0.7248 H   0  0  0  0  0  0  0  0  0  0  0  0
    2.1112    0.0368    0.0671 H   0  0  0  0  0  0  0  0  0  0  0  0
   -0.6634   -3.0455    0.0906 H   0  0  0  0  0  0  0  0  0  0  0  0
   -0.7077   -1.6420    1.3227 H   0  0  0  0  0  0  0  0  0  0  0  0
    1.7451   -3.8761   -3.5699 H   0  0  0  0  0  0  0  0  0  0  0  0
    0.1365   -4.5643   -3.5435 H   0  0  0  0  0  0  0  0  0  0  0  0
    0.3523   -3.1914   -5.5905 H   0  0  0  0  0  0  0  0  0  0  0  0
   -0.9334   -2.5717   -4.5164 H   0  0  0  0  0  0  0  0  0  0  0  0
    0.3439   -0.7547   -5.3530 H   0  0  0  0  0  0  0  0  0  0  0  0
    0.5010   -0.8177   -3.6793 H   0  0  0  0  0  0  0  0  0  0  0  0
    2.9335   -0.5766   -4.3675 H   0  0  0  0  0  0  0  0  0  0  0  0
    2.8714   -2.2221   -4.0232 H   0  0  0  0  0  0  0  0  0  0  0  0
    3.9413   -1.9021   -6.1175 H   0  0  0  0  0  0  0  0  0  0  0  0
    2.4397   -2.8406   -6.3524 H   0  0  0  0  0  0  0  0  0  0  0  0
    2.7063   -1.1002   -8.0907 H   0  0  0  0  0  0  0  0  0  0  0  0
    1.2405   -0.7578   -7.1985 H   0  0  0  0  0  0  0  0  0  0  0  0
    4.6580    3.9699   -6.2424 H   0  0  0  0  0  0  0  0  0  0  0  0
    4.2229    2.5531   -7.3797 H   0  0  0  0  0  0  0  0  0  0  0  0
    2.0021    3.4675   -3.9986 H   0  0  0  0  0  0  0  0  0  0  0  0
    3.4215    2.5794   -3.3467 H   0  0  0  0  0  0  0  0  0  0  0  0
    3.6454    4.2041   -4.0911 H   0  0  0  0  0  0  0  0  0  0  0  0
  1  2  1  0  0  0  0
  1 19  1  0  0  0  0
  1 20  1  0  0  0  0
  1 21  1  0  0  0  0
  2  3  2  0  0  0  0
  2  4  1  0  0  0  0
  3 22  1  0  0  0  0
  3 23  1  0  0  0  0
  4  5  2  0  0  0  0
  4  6  1  0  0  0  0
  6  7  1  0  0  0  0
  7  8  1  0  0  0  0
  7 24  1  0  0  0  0
  7 25  1  0  0  0  0
  8  9  1  0  0  0  0
  8 26  1  0  0  0  0
  8 27  1  0  0  0  0
  9 10  1  0  0  0  0
  9 28  1  0  0  0  0
  9 29  1  0  0  0  0
 10 11  1  0  0  0  0
 10 30  1  0  0  0  0
 10 31  1  0  0  0  0
 11 12  1  0  0  0  0
 11 32  1  0  0  0  0
 11 33  1  0  0  0  0
 12 13  1  0  0  0  0
 12 34  1  0  0  0  0
 12 35  1  0  0  0  0
 13 14  1  0  0  0  0
 14 15  2  0  0  0  0
 14 16  1  0  0  0  0
 16 17  2  0  0  0  0
 16 18  1  0  0  0  0
 17 36  1  0  0  0  0
 17 37  1  0  0  0  0
 18 38  1  0  0  0  0
 18 39  1  0  0  0  0
 18 40  1  0  0  0  0
M  END
$$$$

 OpenBabel05152416213D

 39 41  0  0  1  0  0  0  0  0999 V2000
    1.7759   -0.2637   -0.1990 C   0  0  0  0  0  0  0  0  0  0  0  0
    0.6634   -1.3789   -0.0921 C   0  0  0  0  0  0  0  0  0  0  0  0
   -0.1135   -1.4814   -1.4087 C   0  0  0  0  0  0  0  0  0  0  0  0
   -0.8259   -0.1494   -1.7561 C   0  0  0  0  0  0  0  0  0  0  0  0
   -1.1507    0.7568   -0.5387 C   0  0  0  0  0  0  0  0  0  0  0  0
   -0.8855    0.3968    0.7461 C   0  0  0  0  0  0  0  0  0  0  0  0
   -0.3570   -0.9631    0.9895 C   0  0  1  0  0  0  0  0  0  0  0  0
   -1.6702   -1.8076    1.2023 C   0  0  0  0  0  0  0  0  0  0  0  0
   -1.6880   -1.8660    2.6817 C   0  0  0  0  0  0  0  0  0  0  0  0
   -1.0436   -0.4726    3.0132 C   0  0  1  0  0  0  0  0  0  0  0  0
    0.2806   -0.7931    2.3646 C   0  0  0  0  0  0  0  0  0  0  0  0
   -1.3466    0.9283    2.1677 C   0  0  0  0  0  0  0  0  0  0  0  0
   -2.5896    1.8594    1.8335 C   0  0  0  0  0  0  0  0  0  0  0  0
   -0.5827    1.8920    3.1582 C   0  0  0  0  0  0  0  0  0  0  0  0
    1.2203   -2.7878    0.2647 C   0  0  0  0  0  0  0  0  0  0  0  0
    1.7004    0.5303    0.5716 H   0  0  0  0  0  0  0  0  0  0  0  0
    1.6224    0.3904   -1.0801 H   0  0  0  0  0  0  0  0  0  0  0  0
    2.8098   -0.6400   -0.1532 H   0  0  0  0  0  0  0  0  0  0  0  0
   -0.8805   -2.2807   -1.3105 H   0  0  0  0  0  0  0  0  0  0  0  0
    0.5505   -1.8029   -2.2426 H   0  0  0  0  0  0  0  0  0  0  0  0
   -0.1834    0.4059   -2.4627 H   0  0  0  0  0  0  0  0  0  0  0  0
   -1.7641   -0.4048   -2.2974 H   0  0  0  0  0  0  0  0  0  0  0  0
   -1.6415    1.6805   -0.8340 H   0  0  0  0  0  0  0  0  0  0  0  0
   -2.6092   -1.2139    1.0276 H   0  0  0  0  0  0  0  0  0  0  0  0
   -1.8466   -2.7487    0.6463 H   0  0  0  0  0  0  0  0  0  0  0  0
   -1.0084   -2.7311    2.9634 H   0  0  0  0  0  0  0  0  0  0  0  0
   -2.6489   -2.1393    3.1456 H   0  0  0  0  0  0  0  0  0  0  0  0
   -0.9391   -0.4073    4.1197 H   0  0  0  0  0  0  0  0  0  0  0  0
    0.8097   -1.6742    2.7756 H   0  0  0  0  0  0  0  0  0  0  0  0
    1.0551   -0.0112    2.4399 H   0  0  0  0  0  0  0  0  0  0  0  0
   -3.5339    1.3650    1.5764 H   0  0  0  0  0  0  0  0  0  0  0  0
   -2.7528    2.7516    2.4836 H   0  0  0  0  0  0  0  0  0  0  0  0
   -2.3222    2.4891    0.9466 H   0  0  0  0  0  0  0  0  0  0  0  0
   -1.1708    1.7431    4.0988 H   0  0  0  0  0  0  0  0  0  0  0  0
    0.4499    1.6464    3.4658 H   0  0  0  0  0  0  0  0  0  0  0  0
   -0.6927    2.9920    3.1192 H   0  0  0  0  0  0  0  0  0  0  0  0
    1.9523   -3.1204   -0.4931 H   0  0  0  0  0  0  0  0  0  0  0  0
    1.7194   -2.8455    1.2504 H   0  0  0  0  0  0  0  0  0  0  0  0
    0.3904   -3.5317    0.2935 H   0  0  0  0  0  0  0  0  0  0  0  0
  1  2  1  0  0  0  0
  1 16  1  0  0  0  0
  1 17  1  0  0  0  0
  1 18  1  0  0  0  0
  2  3  1  0  0  0  0
  2  7  1  0  0  0  0
  2 15  1  0  0  0  0
  3  4  1  0  0  0  0
  3 19  1  0  0  0  0
  3 20  1  0  0  0  0
  4  5  1  0  0  0  0
  4 21  1  0  0  0  0
  4 22  1  0  0  0  0
  5  6  2  0  0  0  0
  5 23  1  0  0  0  0
  6 12  1  0  0  0  0
  7  6  1  6  0  0  0
  7  8  1  0  0  0  0
  7 11  1  0  0  0  0
  8  9  1  0  0  0  0
  8 24  1  0  0  0  0
  8 25  1  0  0  0  0
  9 10  1  0  0  0  0
  9 26  1  0  0  0  0
  9 27  1  0  0  0  0
 10 11  1  0  0  0  0
 10 12  1  0  0  0  0
 10 28  1  1  0  0  0
 11 29  1  0  0  0  0
 11 30  1  0  0  0  0
 12 13  1  0  0  0  0
 12 14  1  0  0  0  0
 13 31  1  0  0  0  0
 13 32  1  0  0  0  0
 13 33  1  0  0  0  0
 14 34  1  0  0  0  0
 14 35  1  0  0  0  0
 14 36  1  0  0  0  0
 15 37  1  0  0  0  0
 15 38  1  0  0  0  0
 15 39  1  0  0  0  0
M  END
$$$$

 OpenBabel05152416213D

 30 29  0  0  0  0  0  0  0  0999 V2000
   -1.2063    1.0496   -0.1190 C   0  0  0  0  0  0  0  0  0  0  0  0
    0.1765    0.9676   -0.0681 C   0  0  0  0  0  0  0  0  0  0  0  0
    0.8291   -0.3060    0.0948 C   0  0  0  0  0  0  0  0  0  0  0  0
    0.0336   -1.4509    0.1009 C   0  0  0  0  0  0  0  0  0  0  0  0
   -1.3373   -1.3610    0.0456 C   0  0  0  0  0  0  0  0  0  0  0  0
   -1.9638   -0.1135   -0.0329 C   0  0  0  0  0  0  0  0  0  0  0  0
   -3.4025   -0.0434   -0.0150 C   0  0  0  0  0  0  0  0  0  0  0  0
   -4.0937    0.6304   -1.0259 C   0  0  0  0  0  0  0  0  0  0  0  0
   -5.4806    0.6391   -1.0164 C   0  0  0  0  0  0  0  0  0  0  0  0
   -6.1840    0.0045    0.0225 C   0  0  0  0  0  0  0  0  0  0  0  0
   -5.4786   -0.6338    1.0550 C   0  0  0  0  0  0  0  0  0  0  0  0
   -4.0955   -0.6671    1.0292 C   0  0  0  0  0  0  0  0  0  0  0  0
   -7.5885    0.0026    0.0257 N   0  0  0  0  0  0  0  0  0  0  0  0
    2.2271   -0.5065    0.2515 N   0  0  0  0  0  0  0  0  0  0  0  0
    1.9996    0.2711   -2.6733 Cl  0  0  0  0  0  0  0  0  0  0  0  0
    1.7545    1.6819    2.4897 Cl  0  0  0  0  0  0  0  0  0  0  0  0
   -1.7054    2.0170   -0.1831 H   0  0  0  0  0  0  0  0  0  0  0  0
    0.6687    1.9261   -0.1459 H   0  0  0  0  0  0  0  0  0  0  0  0
    0.5021   -2.4235    0.1670 H   0  0  0  0  0  0  0  0  0  0  0  0
   -1.9226   -2.2700    0.0568 H   0  0  0  0  0  0  0  0  0  0  0  0
   -3.5516    1.1095   -1.8347 H   0  0  0  0  0  0  0  0  0  0  0  0
   -6.0096    1.1320   -1.8215 H   0  0  0  0  0  0  0  0  0  0  0  0
   -6.0013   -1.1136    1.8727 H   0  0  0  0  0  0  0  0  0  0  0  0
   -3.5502   -1.1588    1.8304 H   0  0  0  0  0  0  0  0  0  0  0  0
   -8.1063   -0.4663    0.7835 H   0  0  0  0  0  0  0  0  0  0  0  0
   -8.1107    0.4473   -0.7432 H   0  0  0  0  0  0  0  0  0  0  0  0
    2.6090   -1.4677    0.2768 H   0  0  0  0  0  0  0  0  0  0  0  0
    2.9342    0.2367    0.3448 H   0  0  0  0  0  0  0  0  0  0  0  0
    3.1179    0.1022   -1.8868 H   0  0  0  0  0  0  0  0  0  0  0  0
    2.2031    1.9833    1.2230 H   0  0  0  0  0  0  0  0  0  0  0  0
  1  2  2  0  0  0  0
  1  6  1  0  0  0  0
  1 17  1  0  0  0  0
  2  3  1  0  0  0  0
  2 18  1  0  0  0  0
  3  4  2  0  0  0  0
  3 14  1  0  0  0  0
  4  5  1  0  0  0  0
  4 19  1  0  0  0  0
  5  6  2  0  0  0  0
  5 20  1  0  0  0  0
  6  7  1  0  0  0  0
  7  8  2  0  0  0  0
  7 12  1  0  0  0  0
  8  9  1  0  0  0  0
  8 21  1  0  0  0  0
  9 10  2  0  0  0  0
  9 22  1  0  0  0  0
 10 11  1  0  0  0  0
 10 13  1  0  0  0  0
 11 12  2  0  0  0  0
 11 23  1  0  0  0  0
 12 24  1  0  0  0  0
 13 25  1  0  0  0  0
 13 26  1  0  0  0  0
 14 27  1  0  0  0  0
 14 28  1  0  0  0  0
 15 29  1  0  0  0  0
 16 30  1  0  0  0  0
M  END
$$$$

 OpenBabel05152416213D

 52 54  0  0  0  0  0  0  0  0999 V2000
   -0.6976    2.0223    1.0236 C   0  0  0  0  0  0  0  0  0  0  0  0
    0.5790    2.0857    0.1209 C   0  0  0  0  0  0  0  0  0  0  0  0
    1.5525    0.8941    0.0002 C   0  0  0  0  0  0  0  0  0  0  0  0
    2.7548    1.1511   -0.6875 C   0  0  0  0  0  0  0  0  0  0  0  0
    3.7404    0.1757   -0.8483 C   0  0  0  0  0  0  0  0  0  0  0  0
    3.5596   -1.0953   -0.3242 C   0  0  0  0  0  0  0  0  0  0  0  0
    2.3787   -1.3982    0.3287 C   0  0  0  0  0  0  0  0  0  0  0  0
    1.3479   -0.4320    0.4850 C   0  0  0  0  0  0  0  0  0  0  0  0
    0.0370   -0.8323    1.0994 C   0  0  0  0  0  0  0  0  0  0  0  0
   -1.1431   -0.2326    0.2734 C   0  0  0  0  0  0  0  0  0  0  0  0
   -1.7601   -0.9546   -0.6856 C   0  0  0  0  0  0  0  0  0  0  0  0
   -3.0417   -0.6944   -1.1695 C   0  0  0  0  0  0  0  0  0  0  0  0
   -3.6430    0.5041   -0.8484 C   0  0  0  0  0  0  0  0  0  0  0  0
   -2.8821    1.4425   -0.1476 C   0  0  0  0  0  0  0  0  0  0  0  0
   -1.6274    1.0674    0.4109 C   0  0  0  0  0  0  0  0  0  0  0  0
   -0.0069   -2.3381    1.2580 N   0  0  0  0  0  0  0  0  0  0  0  0
   -1.0948   -2.9985    2.0057 C   0  0  0  0  0  0  0  0  0  0  0  0
   -2.4191   -2.9355    1.2566 C   0  0  0  0  0  0  0  0  0  0  0  0
   -2.3415   -3.6406   -0.1760 C   0  0  0  0  0  0  0  0  0  0  0  0
   -2.3343   -5.1120   -0.1564 C   0  0  0  0  0  0  0  0  0  0  0  0
   -3.6652   -5.5656    0.4026 C   0  0  0  0  0  0  0  0  0  0  0  0
   -4.8989   -4.9676   -0.3477 C   0  0  0  0  0  0  0  0  0  0  0  0
   -4.8752   -5.2968   -1.8276 C   0  0  0  0  0  0  0  0  0  0  0  0
   -5.7246   -6.0251   -2.2907 O   0  0  0  0  0  0  0  0  0  0  0  0
   -3.9049   -4.7935   -2.6378 O   0  0  0  0  0  0  0  0  0  0  0  0
   -0.4566    1.7523    2.0674 H   0  0  0  0  0  0  0  0  0  0  0  0
   -1.1831    3.0211    1.0115 H   0  0  0  0  0  0  0  0  0  0  0  0
    1.1678    2.9287    0.5207 H   0  0  0  0  0  0  0  0  0  0  0  0
    0.2650    2.3423   -0.9208 H   0  0  0  0  0  0  0  0  0  0  0  0
    2.9305    2.1321   -1.1039 H   0  0  0  0  0  0  0  0  0  0  0  0
    4.6556    0.4030   -1.3748 H   0  0  0  0  0  0  0  0  0  0  0  0
    4.3246   -1.8549   -0.4348 H   0  0  0  0  0  0  0  0  0  0  0  0
    2.3013   -2.4149    0.7033 H   0  0  0  0  0  0  0  0  0  0  0  0
   -0.0077   -0.4244    2.1324 H   0  0  0  0  0  0  0  0  0  0  0  0
   -1.1709   -1.7410   -0.9548 H   0  0  0  0  0  0  0  0  0  0  0  0
   -3.5756   -1.4002   -1.7894 H   0  0  0  0  0  0  0  0  0  0  0  0
   -4.6328    0.7033   -1.2387 H   0  0  0  0  0  0  0  0  0  0  0  0
   -3.2813    2.4439   -0.0560 H   0  0  0  0  0  0  0  0  0  0  0  0
    0.1796   -2.8562    0.3726 H   0  0  0  0  0  0  0  0  0  0  0  0
   -0.8469   -4.0761    2.1383 H   0  0  0  0  0  0  0  0  0  0  0  0
   -1.1853   -2.5678    3.0240 H   0  0  0  0  0  0  0  0  0  0  0  0
   -3.2572   -3.3096    1.8661 H   0  0  0  0  0  0  0  0  0  0  0  0
   -2.7122   -1.8731    1.2761 H   0  0  0  0  0  0  0  0  0  0  0  0
   -3.1566   -3.2682   -0.8038 H   0  0  0  0  0  0  0  0  0  0  0  0
   -1.4797   -3.5533   -0.8481 H   0  0  0  0  0  0  0  0  0  0  0  0
   -2.2025   -5.4969   -1.1962 H   0  0  0  0  0  0  0  0  0  0  0  0
   -1.4272   -5.4424    0.3916 H   0  0  0  0  0  0  0  0  0  0  0  0
   -3.6568   -6.6615    0.3558 H   0  0  0  0  0  0  0  0  0  0  0  0
   -3.7142   -5.2859    1.4704 H   0  0  0  0  0  0  0  0  0  0  0  0
   -5.8025   -5.3756    0.1341 H   0  0  0  0  0  0  0  0  0  0  0  0
   -5.0183   -3.8624   -0.2241 H   0  0  0  0  0  0  0  0  0  0  0  0
   -3.8103   -5.0650   -3.5625 H   0  0  0  0  0  0  0  0  0  0  0  0
  1  2  1  0  0  0  0
  1 15  1  0  0  0  0
  1 26  1  0  0  0  0
  1 27  1  0  0  0  0
  2  3  1  0  0  0  0
  2 28  1  0  0  0  0
  2 29  1  0  0  0  0
  3  4  2  0  0  0  0
  3  8  1  0  0  0  0
  4  5  1  0  0  0  0
  4 30  1  0  0  0  0
  5  6  2  0  0  0  0
  5 31  1  0  0  0  0
  6  7  1  0  0  0  0
  6 32  1  0  0  0  0
  7  8  2  0  0  0  0
  7 33  1  0  0  0  0
  8  9  1  0  0  0  0
  9 10  1  0  0  0  0
  9 16  1  0  0  0  0
  9 34  1  0  0  0  0
 10 11  2  0  0  0  0
 10 15  1  0  0  0  0
 11 12  1  0  0  0  0
 11 35  1  0  0  0  0
 12 13  2  0  0  0  0
 12 36  1  0  0  0  0
 13 14  1  0  0  0  0
 13 37  1  0  0  0  0
 14 15  2  0  0  0  0
 14 38  1  0  0  0  0
 16 17  1  0  0  0  0
 16 39  1  0  0  0  0
 17 18  1  0  0  0  0
 17 40  1  0  0  0  0
 17 41  1  0  0  0  0
 18 19  1  0  0  0  0
 18 42  1  0  0  0  0
 18 43  1  0  0  0  0
 19 20  1  0  0  0  0
 19 44  1  0  0  0  0
 19 45  1  0  0  0  0
 20 21  1  0  0  0  0
 20 46  1  0  0  0  0
 20 47  1  0  0  0  0
 21 22  1  0  0  0  0
 21 48  1  0  0  0  0
 21 49  1  0  0  0  0
 22 23  1  0  0  0  0
 22 50  1  0  0  0  0
 22 51  1  0  0  0  0
 23 24  2  0  0  0  0
 23 25  1  0  0  0  0
 25 52  1  0  0  0  0
M  END
$$$$

 OpenBabel05152416213D

 48 51  0  0  1  0  0  0  0  0999 V2000
    1.0527    0.0926    0.1927 C   0  0  0  0  0  0  0  0  0  0  0  0
    0.5539    0.7216   -1.1686 C   0  0  2  0  0  0  0  0  0  0  0  0
    0.1449   -0.2640   -2.4333 C   0  0  0  0  0  0  0  0  0  0  0  0
   -1.2359   -1.0645   -2.4088 C   0  0  0  0  0  0  0  0  0  0  0  0
   -1.6568   -0.7396   -1.0728 C   0  0  0  0  0  0  0  0  0  0  0  0
   -1.2454   -1.4950   -0.1888 O   0  0  0  0  0  0  0  0  0  0  0  0
   -1.7947    0.7637   -0.8797 C   0  0  0  0  0  0  0  0  0  0  0  0
   -0.6763    1.4812   -0.8062 C   0  0  0  0  0  0  0  0  0  0  0  0
   -0.6015    2.8034   -0.0102 C   0  0  0  0  0  0  0  0  0  0  0  0
    0.5466    3.7065   -0.4863 C   0  0  0  0  0  0  0  0  0  0  0  0
    1.8311    2.8492   -0.6467 C   0  0  2  0  0  0  0  0  0  0  0  0
    1.5991    1.7067   -1.7043 C   0  0  2  0  0  0  0  0  0  0  0  0
    2.8976    0.9099   -2.0632 C   0  0  0  0  0  0  0  0  0  0  0  0
    4.0700    1.7857   -2.4703 C   0  0  0  0  0  0  0  0  0  0  0  0
    4.3001    2.8725   -1.3457 C   0  0  1  0  0  0  0  0  0  0  0  0
    3.0103    3.7075   -1.0558 C   0  0  1  0  0  0  0  0  0  0  0  0
    2.7754    4.4628   -2.3582 C   0  0  0  0  0  0  0  0  0  0  0  0
    4.1535    4.9645   -2.6581 C   0  0  0  0  0  0  0  0  0  0  0  0
    5.2012    3.9882   -1.9634 C   0  0  0  0  0  0  0  0  0  0  0  0
    5.8277    4.6045   -1.0493 O   0  0  0  0  0  0  0  0  0  0  0  0
    4.7790    2.1524   -0.0299 C   0  0  0  0  0  0  0  0  0  0  0  0
   -2.9250    1.4319   -1.1840 O   0  0  0  0  0  0  0  0  0  0  0  0
    0.7956   -0.9320    0.3189 H   0  0  0  0  0  0  0  0  0  0  0  0
    0.6440    0.6071    1.0891 H   0  0  0  0  0  0  0  0  0  0  0  0
    2.1212   -0.0023    0.3794 H   0  0  0  0  0  0  0  0  0  0  0  0
    0.0173    0.3130   -3.3981 H   0  0  0  0  0  0  0  0  0  0  0  0
    0.9736   -0.9421   -2.6450 H   0  0  0  0  0  0  0  0  0  0  0  0
   -2.2210   -1.5743   -2.4030 H   0  0  0  0  0  0  0  0  0  0  0  0
   -1.8725   -0.4684   -3.0632 H   0  0  0  0  0  0  0  0  0  0  0  0
   -1.5194    3.3562    0.2883 H   0  0  0  0  0  0  0  0  0  0  0  0
   -0.3535    2.4419    1.0049 H   0  0  0  0  0  0  0  0  0  0  0  0
    0.6667    4.6026    0.1794 H   0  0  0  0  0  0  0  0  0  0  0  0
    0.3071    4.1498   -1.4611 H   0  0  0  0  0  0  0  0  0  0  0  0
    2.0875    2.4261    0.3499 H   0  0  0  0  0  0  0  0  0  0  0  0
    1.1956    2.1590   -2.6459 H   0  0  0  0  0  0  0  0  0  0  0  0
    2.7937    0.0613   -2.7644 H   0  0  0  0  0  0  0  0  0  0  0  0
    3.2350    0.3623   -1.2008 H   0  0  0  0  0  0  0  0  0  0  0  0
    4.0738    2.2801   -3.4621 H   0  0  0  0  0  0  0  0  0  0  0  0
    4.8562    1.0477   -2.7343 H   0  0  0  0  0  0  0  0  0  0  0  0
    3.2203    4.4381   -0.2270 H   0  0  0  0  0  0  0  0  0  0  0  0
    1.9619    5.2027   -2.5300 H   0  0  0  0  0  0  0  0  0  0  0  0
    2.5178    3.7267   -3.1278 H   0  0  0  0  0  0  0  0  0  0  0  0
    4.5483    5.9864   -2.7945 H   0  0  0  0  0  0  0  0  0  0  0  0
    3.9721    5.6699   -3.4868 H   0  0  0  0  0  0  0  0  0  0  0  0
    5.6710    1.5173   -0.1941 H   0  0  0  0  0  0  0  0  0  0  0  0
    4.9474    2.8638    0.8016 H   0  0  0  0  0  0  0  0  0  0  0  0
    4.0185    1.4534    0.3829 H   0  0  0  0  0  0  0  0  0  0  0  0
   -2.8524    2.3360   -1.5583 H   0  0  0  0  0  0  0  0  0  0  0  0
  1 23  1  0  0  0  0
  1 24  1  0  0  0  0
  1 25  1  0  0  0  0
  2  3  1  0  0  0  0
  2  8  1  0  0  0  0
  2 12  1  0  0  0  0
  2  1  1  6  0  0  0
  3  4  1  0  0  0  0
  3 26  1  0  0  0  0
  3 27  1  0  0  0  0
  4  5  1  0  0  0  0
  4 28  1  0  0  0  0
  4 29  1  0  0  0  0
  5  7  1  0  0  0  0
  5  6  2  0  0  0  0
  7  8  2  0  0  0  0
  7 22  1  0  0  0  0
  8  9  1  0  0  0  0
  9 10  1  0  0  0  0
  9 30  1  0  0  0  0
  9 31  1  0  0  0  0
 10 11  1  0  0  0  0
 10 32  1  0  0  0  0
 10 33  1  0  0  0  0
 11 12  1  0  0  0  0
 11 16  1  0  0  0  0
 11 34  1  6  0  0  0
 12 13  1  0  0  0  0
 12 35  1  1  0  0  0
 13 14  1  0  0  0  0
 13 36  1  0  0  0  0
 13 37  1  0  0  0  0
 14 15  1  0  0  0  0
 14 38  1  0  0  0  0
 14 39  1  0  0  0  0
 15 16  1  0  0  0  0
 15 19  1  0  0  0  0
 15 21  1  6  0  0  0
 16 17  1  0  0  0  0
 16 40  1  1  0  0  0
 17 18  1  0  0  0  0
 17 41  1  0  0  0  0
 17 42  1  0  0  0  0
 18 19  1  0  0  0  0
 18 43  1  0  0  0  0
 18 44  1  0  0  0  0
 19 20  2  0  0  0  0
 21 45  1  0  0  0  0
 21 46  1  0  0  0  0
 21 47  1  0  0  0  0
 22 48  1  0  0  0  0
M  END
$$$$

 OpenBabel05152416213D

 38 39  0  0  1  0  0  0  0  0999 V2000
    0.8504    0.0082    0.0393 C   0  0  0  0  0  0  0  0  0  0  0  0
    0.2922   -1.3788   -0.3654 C   0  0  2  0  0  0  0  0  0  0  0  0
    0.2956   -2.3031    0.8310 C   0  0  0  0  0  0  0  0  0  0  0  0
   -0.2099   -3.6668    0.4108 C   0  0  0  0  0  0  0  0  0  0  0  0
   -0.9613   -4.2698    1.1302 O   0  0  0  0  0  0  0  0  0  0  0  0
    0.1953   -4.2386   -0.9231 C   0  0  0  0  0  0  0  0  0  0  0  0
    0.7178   -3.4644   -1.9092 C   0  0  0  0  0  0  0  0  0  0  0  0
    1.0917   -2.0118   -1.5892 C   0  0  1  0  0  0  0  0  0  0  0  0
    0.8278   -1.0689   -2.7847 C   0  0  0  0  0  0  0  0  0  0  0  0
    1.4837   -1.5279   -4.0850 C   0  0  1  0  0  0  0  0  0  0  0  0
    1.0778   -3.0012   -4.4261 C   0  0  0  0  0  0  0  0  0  0  0  0
    1.2841   -4.0241   -3.2528 C   0  0  0  0  0  0  0  0  0  0  0  0
    1.2019   -0.5363   -5.2139 C   0  0  0  0  0  0  0  0  0  0  0  0
    2.0819   -0.4524   -6.2226 C   0  0  0  0  0  0  0  0  0  0  0  0
   -0.0056    0.3867   -5.1926 C   0  0  0  0  0  0  0  0  0  0  0  0
    2.6118   -2.2231   -1.3508 C   0  0  0  0  0  0  0  0  0  0  0  0
    0.4290    0.3598    1.0034 H   0  0  0  0  0  0  0  0  0  0  0  0
    0.5934    0.7866   -0.7087 H   0  0  0  0  0  0  0  0  0  0  0  0
    1.9547   -0.0383    0.1390 H   0  0  0  0  0  0  0  0  0  0  0  0
   -0.7900   -1.2426   -0.6302 H   0  0  0  0  0  0  0  0  0  0  0  0
   -0.3382   -1.8824    1.6548 H   0  0  0  0  0  0  0  0  0  0  0  0
    1.3296   -2.3874    1.2134 H   0  0  0  0  0  0  0  0  0  0  0  0
    0.0722   -5.3154   -1.0467 H   0  0  0  0  0  0  0  0  0  0  0  0
    1.2652   -0.0728   -2.5557 H   0  0  0  0  0  0  0  0  0  0  0  0
   -0.2707   -0.9400   -2.9220 H   0  0  0  0  0  0  0  0  0  0  0  0
    2.5756   -1.4489   -3.9134 H   0  0  0  0  0  0  0  0  0  0  0  0
    1.6709   -3.3197   -5.3150 H   0  0  0  0  0  0  0  0  0  0  0  0
    0.0063   -3.0155   -4.6944 H   0  0  0  0  0  0  0  0  0  0  0  0
    2.3769   -4.2060   -3.1794 H   0  0  0  0  0  0  0  0  0  0  0  0
    0.9721   -5.0647   -3.4813 H   0  0  0  0  0  0  0  0  0  0  0  0
    1.9538    0.2553   -7.0347 H   0  0  0  0  0  0  0  0  0  0  0  0
    2.9673   -1.0810   -6.2254 H   0  0  0  0  0  0  0  0  0  0  0  0
   -0.9314   -0.2245   -5.1535 H   0  0  0  0  0  0  0  0  0  0  0  0
    0.0179    1.0545   -4.3036 H   0  0  0  0  0  0  0  0  0  0  0  0
   -0.0579    1.0392   -6.0901 H   0  0  0  0  0  0  0  0  0  0  0  0
    3.3445   -1.4574   -1.6165 H   0  0  0  0  0  0  0  0  0  0  0  0
    2.8295   -3.0993   -0.6810 H   0  0  0  0  0  0  0  0  0  0  0  0
    3.0229   -2.6225   -2.2418 H   0  0  0  0  0  0  0  0  0  0  0  0
  1  2  1  0  0  0  0
  1 17  1  0  0  0  0
  1 18  1  0  0  0  0
  1 19  1  0  0  0  0
  2  3  1  0  0  0  0
  2  8  1  0  0  0  0
  2 20  1  6  0  0  0
  3  4  1  0  0  0  0
  3 21  1  0  0  0  0
  3 22  1  0  0  0  0
  4  5  2  0  0  0  0
  4  6  1  0  0  0  0
  6  7  2  0  0  0  0
  6 23  1  0  0  0  0
  7  8  1  0  0  0  0
  7 12  1  0  0  0  0
  8  9  1  0  0  0  0
  8 16  1  1  0  0  0
  9 10  1  0  0  0  0
  9 24  1  0  0  0  0
  9 25  1  0  0  0  0
 10 11  1  0  0  0  0
 10 26  1  1  0  0  0
 10 13  1  0  0  0  0
 11 12  1  0  0  0  0
 11 27  1  0  0  0  0
 11 28  1  0  0  0  0
 12 29  1  0  0  0  0
 12 30  1  0  0  0  0
 13 14  2  0  0  0  0
 13 15  1  0  0  0  0
 14 31  1  0  0  0  0
 14 32  1  0  0  0  0
 15 33  1  0  0  0  0
 15 34  1  0  0  0  0
 15 35  1  0  0  0  0
 16 36  1  0  0  0  0
 16 37  1  0  0  0  0
 16 38  1  0  0  0  0
M  END
$$$$

 OpenBabel05152416213D

 33 32  0  0  0  0  0  0  0  0999 V2000
    0.9965    0.0967   -0.1631 C   0  0  0  0  0  0  0  0  0  0  0  0
    0.5986   -1.2945    0.3286 C   0  0  0  0  0  0  0  0  0  0  0  0
    1.0864   -1.5359    1.7680 C   0  0  0  0  0  0  0  0  0  0  0  0
    0.4896   -0.5258    2.7714 C   0  0  0  0  0  0  0  0  0  0  0  0
   -1.0535   -0.5752    2.7974 C   0  0  0  0  0  0  0  0  0  0  0  0
   -1.5738   -1.9582    3.2383 C   0  0  0  0  0  0  0  0  0  0  0  0
   -1.0898   -2.3198    4.6587 C   0  0  0  0  0  0  0  0  0  0  0  0
   -1.5829   -1.3047    5.7144 C   0  0  0  0  0  0  0  0  0  0  0  0
   -3.1211   -1.2497    5.7955 C   0  0  0  0  0  0  0  0  0  0  0  0
   -3.7311   -2.6081    6.1640 C   0  0  0  0  0  0  0  0  0  0  0  0
   -3.3090   -3.0082    7.4466 O   0  0  0  0  0  0  0  0  0  0  0  0
    0.5280    0.8969    0.4458 H   0  0  0  0  0  0  0  0  0  0  0  0
    0.6536    0.2438   -1.2042 H   0  0  0  0  0  0  0  0  0  0  0  0
    2.1006    0.2009   -0.1108 H   0  0  0  0  0  0  0  0  0  0  0  0
   -0.5020   -1.4204    0.2506 H   0  0  0  0  0  0  0  0  0  0  0  0
    1.0461   -2.0600   -0.3365 H   0  0  0  0  0  0  0  0  0  0  0  0
    0.8361   -2.5759    2.0668 H   0  0  0  0  0  0  0  0  0  0  0  0
    2.1930   -1.4700    1.8003 H   0  0  0  0  0  0  0  0  0  0  0  0
    0.9143   -0.7117    3.7772 H   0  0  0  0  0  0  0  0  0  0  0  0
    0.8202    0.5021    2.5354 H   0  0  0  0  0  0  0  0  0  0  0  0
   -1.4380    0.2224    3.4612 H   0  0  0  0  0  0  0  0  0  0  0  0
   -1.4763   -0.3165    1.8079 H   0  0  0  0  0  0  0  0  0  0  0  0
   -2.6794   -1.9747    3.1797 H   0  0  0  0  0  0  0  0  0  0  0  0
   -1.2555   -2.7451    2.5269 H   0  0  0  0  0  0  0  0  0  0  0  0
   -1.4176   -3.3452    4.9104 H   0  0  0  0  0  0  0  0  0  0  0  0
    0.0144   -2.3837    4.6960 H   0  0  0  0  0  0  0  0  0  0  0  0
   -1.1555   -1.5654    6.7024 H   0  0  0  0  0  0  0  0  0  0  0  0
   -1.1898   -0.2900    5.5026 H   0  0  0  0  0  0  0  0  0  0  0  0
   -3.4232   -0.4932    6.5471 H   0  0  0  0  0  0  0  0  0  0  0  0
   -3.5485   -0.9084    4.8273 H   0  0  0  0  0  0  0  0  0  0  0  0
   -4.8333   -2.5236    6.1697 H   0  0  0  0  0  0  0  0  0  0  0  0
   -3.5029   -3.3979    5.4166 H   0  0  0  0  0  0  0  0  0  0  0  0
   -2.3653   -3.2979    7.3648 H   0  0  0  0  0  0  0  0  0  0  0  0
  1  2  1  0  0  0  0
  1 12  1  0  0  0  0
  1 13  1  0  0  0  0
  1 14  1  0  0  0  0
  2  3  1  0  0  0  0
  2 15  1  0  0  0  0
  2 16  1  0  0  0  0
  3  4  1  0  0  0  0
  3 17  1  0  0  0  0
  3 18  1  0  0  0  0
  4  5  1  0  0  0  0
  4 19  1  0  0  0  0
  4 20  1  0  0  0  0
  5  6  1  0  0  0  0
  5 21  1  0  0  0  0
  5 22  1  0  0  0  0
  6  7  1  0  0  0  0
  6 23  1  0  0  0  0
  6 24  1  0  0  0  0
  7  8  1  0  0  0  0
  7 25  1  0  0  0  0
  7 26  1  0  0  0  0
  8  9  1  0  0  0  0
  8 27  1  0  0  0  0
  8 28  1  0  0  0  0
  9 10  1  0  0  0  0
  9 29  1  0  0  0  0
  9 30  1  0  0  0  0
 10 11  1  0  0  0  0
 10 31  1  0  0  0  0
 10 32  1  0  0  0  0
 11 33  1  0  0  0  0
M  END
$$$$

 OpenBabel05152416213D

 32 32  0  0  0  0  0  0  0  0999 V2000
    0.2899   -0.1041   -0.2263 C   0  0  0  0  0  0  0  0  0  0  0  0
    0.3351    0.9795    0.6428 O   0  0  0  0  0  0  0  0  0  0  0  0
    0.8474    1.1303    1.9057 C   0  0  0  0  0  0  0  0  0  0  0  0
   -0.0592    1.6071    2.8614 C   0  0  0  0  0  0  0  0  0  0  0  0
    0.3621    2.0592    4.1184 C   0  0  0  0  0  0  0  0  0  0  0  0
    1.6904    1.8761    4.5099 C   0  0  0  0  0  0  0  0  0  0  0  0
    2.6269    1.3345    3.6123 C   0  0  0  0  0  0  0  0  0  0  0  0
    2.2083    0.9969    2.2986 C   0  0  0  0  0  0  0  0  0  0  0  0
    3.2038    0.6052    1.4676 O   0  0  0  0  0  0  0  0  0  0  0  0
    3.1437    0.1205    0.2212 C   0  0  0  0  0  0  0  0  0  0  0  0
    3.9201    1.2267    4.0337 O   0  0  0  0  0  0  0  0  0  0  0  0
    4.9995    0.8057    3.2636 C   0  0  0  0  0  0  0  0  0  0  0  0
   -0.5879    2.8577    4.9890 C   0  0  0  0  0  0  0  0  0  0  0  0
   -0.9599    4.1984    4.2862 C   0  0  0  0  0  0  0  0  0  0  0  0
   -1.7072    4.0199    3.0361 N   0  0  0  0  0  0  0  0  0  0  0  0
   -0.3736    0.1420   -1.0762 H   0  0  0  0  0  0  0  0  0  0  0  0
    0.1601   -1.0558    0.3278 H   0  0  0  0  0  0  0  0  0  0  0  0
    1.1157   -0.2109   -0.9207 H   0  0  0  0  0  0  0  0  0  0  0  0
   -1.0964    1.6957    2.5726 H   0  0  0  0  0  0  0  0  0  0  0  0
    2.0251    2.2015    5.4902 H   0  0  0  0  0  0  0  0  0  0  0  0
    2.6224   -0.8566    0.3116 H   0  0  0  0  0  0  0  0  0  0  0  0
    2.7288    0.9308   -0.4201 H   0  0  0  0  0  0  0  0  0  0  0  0
    4.1433   -0.1192   -0.1663 H   0  0  0  0  0  0  0  0  0  0  0  0
    4.8294   -0.2390    2.9133 H   0  0  0  0  0  0  0  0  0  0  0  0
    5.1325    1.4962    2.3980 H   0  0  0  0  0  0  0  0  0  0  0  0
    5.9399    0.8197    3.8353 H   0  0  0  0  0  0  0  0  0  0  0  0
   -1.4933    2.2770    5.2604 H   0  0  0  0  0  0  0  0  0  0  0  0
   -0.0749    3.1430    5.9381 H   0  0  0  0  0  0  0  0  0  0  0  0
   -1.5833    4.7994    4.9799 H   0  0  0  0  0  0  0  0  0  0  0  0
   -0.0344    4.7817    4.0715 H   0  0  0  0  0  0  0  0  0  0  0  0
   -2.0723    4.9439    2.7211 H   0  0  0  0  0  0  0  0  0  0  0  0
   -1.0431    3.7733    2.2696 H   0  0  0  0  0  0  0  0  0  0  0  0
  1  2  1  0  0  0  0
  1 16  1  0  0  0  0
  1 17  1  0  0  0  0
  1 18  1  0  0  0  0
  2  3  1  0  0  0  0
  3  4  2  0  0  0  0
  3  8  1  0  0  0  0
  4  5  1  0  0  0  0
  4 19  1  0  0  0  0
  5  6  2  0  0  0  0
  5 13  1  0  0  0  0
  6  7  1  0  0  0  0
  6 20  1  0  0  0  0
  7  8  2  0  0  0  0
  7 11  1  0  0  0  0
  8  9  1  0  0  0  0
  9 10  1  0  0  0  0
 10 21  1  0  0  0  0
 10 22  1  0  0  0  0
 10 23  1  0  0  0  0
 11 12  1  0  0  0  0
 12 24  1  0  0  0  0
 12 25  1  0  0  0  0
 12 26  1  0  0  0  0
 13 14  1  0  0  0  0
 13 27  1  0  0  0  0
 13 28  1  0  0  0  0
 14 15  1  0  0  0  0
 14 29  1  0  0  0  0
 14 30  1  0  0  0  0
 15 31  1  0  0  0  0
 15 32  1  0  0  0  0
M  END
$$$$

 OpenBabel05152416213D

 33 35  0  0  0  0  0  0  0  0999 V2000
    0.2137    1.1983   -0.0502 C   0  0  0  0  0  0  0  0  0  0  0  0
    1.5853    1.1765    0.0286 C   0  0  0  0  0  0  0  0  0  0  0  0
    2.3282   -0.0111    0.0691 C   0  0  0  0  0  0  0  0  0  0  0  0
    1.6076   -1.2117    0.0130 C   0  0  0  0  0  0  0  0  0  0  0  0
    0.2094   -1.1976   -0.0610 C   0  0  0  0  0  0  0  0  0  0  0  0
   -0.4883    0.0129   -0.0623 C   0  0  0  0  0  0  0  0  0  0  0  0
   -1.9221    0.0213    0.0001 C   0  0  0  0  0  0  0  0  0  0  0  0
   -3.0769   -0.0236    0.0457 N   0  0  0  0  0  0  0  0  0  0  0  0
    3.8516   -0.0037    0.1721 C   0  0  0  0  0  0  0  0  0  0  0  0
    4.4406    0.6889   -1.0521 C   0  0  0  0  0  0  0  0  0  0  0  0
    4.1723    2.0410   -1.2701 C   0  0  0  0  0  0  0  0  0  0  0  0
    4.5757    2.7066   -2.4016 C   0  0  0  0  0  0  0  0  0  0  0  0
    5.3602    2.0525   -3.3369 C   0  0  0  0  0  0  0  0  0  0  0  0
    5.6704    0.7088   -3.1503 C   0  0  0  0  0  0  0  0  0  0  0  0
    5.2168    0.0248   -2.0150 C   0  0  0  0  0  0  0  0  0  0  0  0
    5.9097    2.7926   -4.4368 C   0  0  0  0  0  0  0  0  0  0  0  0
    6.3278    3.4280   -5.3081 N   0  0  0  0  0  0  0  0  0  0  0  0
    4.2851    0.6386    1.4154 N   0  0  0  0  0  0  0  0  0  0  0  0
    3.9178    0.3013    2.6651 C   0  0  0  0  0  0  0  0  0  0  0  0
    4.5951    1.0367    3.5664 N   0  0  0  0  0  0  0  0  0  0  0  0
    5.3651    1.8403    2.8023 C   0  0  0  0  0  0  0  0  0  0  0  0
    5.1755    1.6125    1.4933 N   0  0  0  0  0  0  0  0  0  0  0  0
   -0.2959    2.1473   -0.0658 H   0  0  0  0  0  0  0  0  0  0  0  0
    1.9965    2.1239    0.0908 H   0  0  0  0  0  0  0  0  0  0  0  0
    2.1110   -2.1599    0.0446 H   0  0  0  0  0  0  0  0  0  0  0  0
   -0.3261   -2.1312   -0.0952 H   0  0  0  0  0  0  0  0  0  0  0  0
    4.2126   -1.0549    0.2103 H   0  0  0  0  0  0  0  0  0  0  0  0
    3.6739    2.6295   -0.5682 H   0  0  0  0  0  0  0  0  0  0  0  0
    4.2943    3.7415   -2.5207 H   0  0  0  0  0  0  0  0  0  0  0  0
    6.2661    0.1958   -3.8821 H   0  0  0  0  0  0  0  0  0  0  0  0
    5.4784   -1.0106   -1.9115 H   0  0  0  0  0  0  0  0  0  0  0  0
    3.1933   -0.4684    2.9181 H   0  0  0  0  0  0  0  0  0  0  0  0
    6.0643    2.5684    3.1871 H   0  0  0  0  0  0  0  0  0  0  0  0
  1  2  2  0  0  0  0
  1  6  1  0  0  0  0
  1 23  1  0  0  0  0
  2  3  1  0  0  0  0
  2 24  1  0  0  0  0
  3  4  2  0  0  0  0
  3  9  1  0  0  0  0
  4  5  1  0  0  0  0
  4 25  1  0  0  0  0
  5  6  2  0  0  0  0
  5 26  1  0  0  0  0
  6  7  1  0  0  0  0
  7  8  3  0  0  0  0
  9 10  1  0  0  0  0
  9 18  1  0  0  0  0
  9 27  1  0  0  0  0
 10 11  2  0  0  0  0
 10 15  1  0  0  0  0
 11 12  1  0  0  0  0
 11 28  1  0  0  0  0
 12 13  2  0  0  0  0
 12 29  1  0  0  0  0
 13 14  1  0  0  0  0
 13 16  1  0  0  0  0
 14 15  2  0  0  0  0
 14 30  1  0  0  0  0
 15 31  1  0  0  0  0
 16 17  3  0  0  0  0
 18 19  1  0  0  0  0
 18 22  1  0  0  0  0
 19 20  2  0  0  0  0
 19 32  1  0  0  0  0
 20 21  1  0  0  0  0
 21 22  2  0  0  0  0
 21 33  1  0  0  0  0
M  END
$$$$

 OpenBabel05152416213D

 27 28  0  0  0  0  0  0  0  0999 V2000
    0.2213   -1.2127   -0.0197 C   0  0  0  0  0  0  0  0  0  0  0  0
   -1.1808   -1.1799   -0.0049 C   0  0  0  0  0  0  0  0  0  0  0  0
   -1.8594    0.0484    0.0197 C   0  0  0  0  0  0  0  0  0  0  0  0
   -1.1013    1.2408    0.0281 C   0  0  0  0  0  0  0  0  0  0  0  0
    0.2844    1.2055    0.0032 C   0  0  0  0  0  0  0  0  0  0  0  0
    0.9577   -0.0161   -0.0151 C   0  0  0  0  0  0  0  0  0  0  0  0
    2.3714   -0.0323   -0.0153 N   0  0  0  0  0  0  0  0  0  0  0  0
   -3.2213    0.0654    0.0815 O   0  0  0  0  0  0  0  0  0  0  0  0
   -3.9651    1.1974    0.0186 C   0  0  0  0  0  0  0  0  0  0  0  0
   -3.8178    2.1117   -1.0423 C   0  0  0  0  0  0  0  0  0  0  0  0
   -4.5220    3.3150   -1.0373 C   0  0  0  0  0  0  0  0  0  0  0  0
   -5.3931    3.6174    0.0184 C   0  0  0  0  0  0  0  0  0  0  0  0
   -5.5642    2.6917    1.0603 C   0  0  0  0  0  0  0  0  0  0  0  0
   -4.8580    1.4861    1.0556 C   0  0  0  0  0  0  0  0  0  0  0  0
   -6.0870    4.8496    0.0358 N   0  0  0  0  0  0  0  0  0  0  0  0
    0.7353   -2.1657   -0.0268 H   0  0  0  0  0  0  0  0  0  0  0  0
   -1.7356   -2.1113    0.0008 H   0  0  0  0  0  0  0  0  0  0  0  0
   -1.5652    2.2133    0.0696 H   0  0  0  0  0  0  0  0  0  0  0  0
    0.8319    2.1393    0.0113 H   0  0  0  0  0  0  0  0  0  0  0  0
    2.8902   -0.9211   -0.0086 H   0  0  0  0  0  0  0  0  0  0  0  0
    2.9013    0.8529   -0.0029 H   0  0  0  0  0  0  0  0  0  0  0  0
   -3.1342    1.8994   -1.8557 H   0  0  0  0  0  0  0  0  0  0  0  0
   -4.3764    4.0195   -1.8471 H   0  0  0  0  0  0  0  0  0  0  0  0
   -6.2308    2.9141    1.8838 H   0  0  0  0  0  0  0  0  0  0  0  0
   -4.9762    0.7899    1.8770 H   0  0  0  0  0  0  0  0  0  0  0  0
   -6.7234    5.0840    0.8117 H   0  0  0  0  0  0  0  0  0  0  0  0
   -5.9558    5.5367   -0.7216 H   0  0  0  0  0  0  0  0  0  0  0  0
  1  2  2  0  0  0  0
  1  6  1  0  0  0  0
  1 16  1  0  0  0  0
  2  3  1  0  0  0  0
  2 17  1  0  0  0  0
  3  4  2  0  0  0  0
  3  8  1  0  0  0  0
  4  5  1  0  0  0  0
  4 18  1  0  0  0  0
  5  6  2  0  0  0  0
  5 19  1  0  0  0  0
  6  7  1  0  0  0  0
  7 20  1  0  0  0  0
  7 21  1  0  0  0  0
  8  9  1  0  0  0  0
  9 10  2  0  0  0  0
  9 14  1  0  0  0  0
 10 11  1  0  0  0  0
 10 22  1  0  0  0  0
 11 12  2  0  0  0  0
 11 23  1  0  0  0  0
 12 13  1  0  0  0  0
 12 15  1  0  0  0  0
 13 14  2  0  0  0  0
 13 24  1  0  0  0  0
 14 25  1  0  0  0  0
 15 26  1  0  0  0  0
 15 27  1  0  0  0  0
M  END
$$$$

 OpenBabel05152416213D

 47 48  0  0  0  0  0  0  0  0999 V2000
    1.1886    0.2482    0.1418 C   0  0  0  0  0  0  0  0  0  0  0  0
    0.7523    0.8822   -1.1963 C   0  0  0  0  0  0  0  0  0  0  0  0
    1.1188   -0.0097   -2.3888 C   0  0  0  0  0  0  0  0  0  0  0  0
    0.3592   -1.3180   -2.3033 C   0  0  0  0  0  0  0  0  0  0  0  0
   -1.0005   -1.0241   -2.2761 O   0  0  0  0  0  0  0  0  0  0  0  0
   -1.8100   -0.9392   -1.1685 C   0  0  0  0  0  0  0  0  0  0  0  0
   -1.3621   -0.8681   -0.0391 O   0  0  0  0  0  0  0  0  0  0  0  0
   -3.2876   -0.9825   -1.3129 C   0  0  0  0  0  0  0  0  0  0  0  0
   -3.7286   -0.2563   -2.5890 C   0  0  0  0  0  0  0  0  0  0  0  0
   -3.7672   -2.2943   -1.2604 O   0  0  0  0  0  0  0  0  0  0  0  0
   -3.4515   -3.2769   -2.1467 C   0  0  0  0  0  0  0  0  0  0  0  0
   -4.4763   -4.0127   -2.7354 C   0  0  0  0  0  0  0  0  0  0  0  0
   -4.1888   -4.9423   -3.7487 C   0  0  0  0  0  0  0  0  0  0  0  0
   -2.8678   -5.1038   -4.2140 C   0  0  0  0  0  0  0  0  0  0  0  0
   -1.8498   -4.3934   -3.5655 C   0  0  0  0  0  0  0  0  0  0  0  0
   -2.1356   -3.5602   -2.5239 C   0  0  0  0  0  0  0  0  0  0  0  0
   -2.6069   -5.8987   -5.2839 O   0  0  0  0  0  0  0  0  0  0  0  0
   -1.3610   -6.0495   -5.8235 C   0  0  0  0  0  0  0  0  0  0  0  0
   -1.1625   -5.7086   -7.1161 N   0  0  0  0  0  0  0  0  0  0  0  0
    0.0780   -5.7385   -7.6858 C   0  0  0  0  0  0  0  0  0  0  0  0
    1.1924   -6.1311   -6.9290 C   0  0  0  0  0  0  0  0  0  0  0  0
    1.0010   -6.5075   -5.5939 C   0  0  0  0  0  0  0  0  0  0  0  0
   -0.2774   -6.4790   -5.0379 C   0  0  0  0  0  0  0  0  0  0  0  0
    2.5600   -6.1422   -7.5618 C   0  0  0  0  0  0  0  0  0  0  0  0
    2.5555   -7.0099   -8.6372 F   0  0  0  0  0  0  0  0  0  0  0  0
    2.8770   -4.8707   -8.0038 F   0  0  0  0  0  0  0  0  0  0  0  0
    3.5324   -6.5526   -6.6655 F   0  0  0  0  0  0  0  0  0  0  0  0
    0.8601   -0.7953    0.3095 H   0  0  0  0  0  0  0  0  0  0  0  0
    0.7713    0.8331    0.9843 H   0  0  0  0  0  0  0  0  0  0  0  0
    2.2883    0.1948    0.1839 H   0  0  0  0  0  0  0  0  0  0  0  0
   -0.3401    1.0844   -1.2221 H   0  0  0  0  0  0  0  0  0  0  0  0
    1.2161    1.8773   -1.3032 H   0  0  0  0  0  0  0  0  0  0  0  0
    0.8022    0.4822   -3.3353 H   0  0  0  0  0  0  0  0  0  0  0  0
    2.2132   -0.1899   -2.4265 H   0  0  0  0  0  0  0  0  0  0  0  0
    0.5969   -1.9492   -3.1903 H   0  0  0  0  0  0  0  0  0  0  0  0
    0.6703   -1.9518   -1.4426 H   0  0  0  0  0  0  0  0  0  0  0  0
   -3.7213   -0.4216   -0.4550 H   0  0  0  0  0  0  0  0  0  0  0  0
   -3.3449   -0.7795   -3.4906 H   0  0  0  0  0  0  0  0  0  0  0  0
   -4.8353   -0.2260   -2.6283 H   0  0  0  0  0  0  0  0  0  0  0  0
   -3.3432    0.7896   -2.6000 H   0  0  0  0  0  0  0  0  0  0  0  0
   -5.4944   -3.8331   -2.4186 H   0  0  0  0  0  0  0  0  0  0  0  0
   -4.9979   -5.4948   -4.1994 H   0  0  0  0  0  0  0  0  0  0  0  0
   -0.8099   -4.4425   -3.8492 H   0  0  0  0  0  0  0  0  0  0  0  0
   -1.2883   -3.1567   -2.0510 H   0  0  0  0  0  0  0  0  0  0  0  0
    0.1897   -5.4411   -8.7183 H   0  0  0  0  0  0  0  0  0  0  0  0
    1.8306   -6.8103   -4.9684 H   0  0  0  0  0  0  0  0  0  0  0  0
   -0.4121   -6.7478   -3.9991 H   0  0  0  0  0  0  0  0  0  0  0  0
  1  2  1  0  0  0  0
  1 28  1  0  0  0  0
  1 29  1  0  0  0  0
  1 30  1  0  0  0  0
  2  3  1  0  0  0  0
  2 31  1  0  0  0  0
  2 32  1  0  0  0  0
  3  4  1  0  0  0  0
  3 33  1  0  0  0  0
  3 34  1  0  0  0  0
  4  5  1  0  0  0  0
  4 35  1  0  0  0  0
  4 36  1  0  0  0  0
  5  6  1  0  0  0  0
  6  7  2  0  0  0  0
  6  8  1  0  0  0  0
  8  9  1  0  0  0  0
  8 10  1  0  0  0  0
  8 37  1  0  0  0  0
  9 38  1  0  0  0  0
  9 39  1  0  0  0  0
  9 40  1  0  0  0  0
 10 11  1  0  0  0  0
 11 12  2  0  0  0  0
 11 16  1  0  0  0  0
 12 13  1  0  0  0  0
 12 41  1  0  0  0  0
 13 14  2  0  0  0  0
 13 42  1  0  0  0  0
 14 15  1  0  0  0  0
 14 17  1  0  0  0  0
 15 16  2  0  0  0  0
 15 43  1  0  0  0  0
 16 44  1  0  0  0  0
 17 18  1  0  0  0  0
 18 19  2  0  0  0  0
 18 23  1  0  0  0  0
 19 20  1  0  0  0  0
 20 21  2  0  0  0  0
 20 45  1  0  0  0  0
 21 22  1  0  0  0  0
 21 24  1  0  0  0  0
 22 23  2  0  0  0  0
 22 46  1  0  0  0  0
 23 47  1  0  0  0  0
 24 25  1  0  0  0  0
 24 26  1  0  0  0  0
 24 27  1  0  0  0  0
M  END
$$$$

 OpenBabel05152416213D

 46 46  0  0  0  0  0  0  0  0999 V2000
   -2.0926    2.5425    0.3182 C   0  0  0  0  0  0  0  0  0  0  0  0
   -1.1347    3.4026   -0.5423 C   0  0  0  0  0  0  0  0  0  0  0  0
    0.1944    3.6590    0.2289 C   0  0  0  0  0  0  0  0  0  0  0  0
    1.3363    2.7912   -0.3607 C   0  0  0  0  0  0  0  0  0  0  0  0
    2.4194    2.4267    0.6625 C   0  0  0  0  0  0  0  0  0  0  0  0
    3.3684    1.3498    0.1014 C   0  0  0  0  0  0  0  0  0  0  0  0
    2.6691    0.1349    0.0035 O   0  0  0  0  0  0  0  0  0  0  0  0
    3.5371   -0.9503   -0.2815 C   0  0  0  0  0  0  0  0  0  0  0  0
    2.7047   -2.1783   -0.6933 C   0  0  0  0  0  0  0  0  0  0  0  0
    1.3397   -2.1250   -0.0053 C   0  0  0  0  0  0  0  0  0  0  0  0
    0.5767   -3.4262   -0.0213 C   0  0  0  0  0  0  0  0  0  0  0  0
   -0.6633   -3.1370    0.5112 O   0  0  0  0  0  0  0  0  0  0  0  0
   -1.7904   -2.9107   -0.2283 C   0  0  0  0  0  0  0  0  0  0  0  0
   -1.8401   -3.2152   -1.4005 O   0  0  0  0  0  0  0  0  0  0  0  0
   -2.9428   -2.1747    0.4282 C   0  0  0  0  0  0  0  0  0  0  0  0
   -3.3995   -0.9543   -0.4266 C   0  0  0  0  0  0  0  0  0  0  0  0
   -3.4167    0.3744    0.3637 C   0  0  0  0  0  0  0  0  0  0  0  0
   -2.9378    1.5645   -0.5123 C   0  0  0  0  0  0  0  0  0  0  0  0
   -2.6984    3.1625    1.0158 H   0  0  0  0  0  0  0  0  0  0  0  0
   -1.4378    1.8991    0.9420 H   0  0  0  0  0  0  0  0  0  0  0  0
   -0.8749    2.8642   -1.4821 H   0  0  0  0  0  0  0  0  0  0  0  0
   -1.6456    4.3245   -0.8789 H   0  0  0  0  0  0  0  0  0  0  0  0
    0.0483    3.3948    1.2997 H   0  0  0  0  0  0  0  0  0  0  0  0
    0.4771    4.7304    0.2356 H   0  0  0  0  0  0  0  0  0  0  0  0
    1.7861    3.3253   -1.2320 H   0  0  0  0  0  0  0  0  0  0  0  0
    0.9223    1.8306   -0.7300 H   0  0  0  0  0  0  0  0  0  0  0  0
    1.9447    2.0111    1.5825 H   0  0  0  0  0  0  0  0  0  0  0  0
    2.9793    3.3426    0.9363 H   0  0  0  0  0  0  0  0  0  0  0  0
    4.2244    1.2539    0.8055 H   0  0  0  0  0  0  0  0  0  0  0  0
    3.7046    1.6462   -0.9129 H   0  0  0  0  0  0  0  0  0  0  0  0
    4.0993   -1.2286    0.6408 H   0  0  0  0  0  0  0  0  0  0  0  0
    4.2565   -0.7224   -1.0988 H   0  0  0  0  0  0  0  0  0  0  0  0
    3.2740   -3.1005   -0.4413 H   0  0  0  0  0  0  0  0  0  0  0  0
    2.5157   -2.1826   -1.7907 H   0  0  0  0  0  0  0  0  0  0  0  0
    0.7377   -1.3474   -0.5384 H   0  0  0  0  0  0  0  0  0  0  0  0
    1.4424   -1.8259    1.0595 H   0  0  0  0  0  0  0  0  0  0  0  0
    1.1151   -4.1496    0.6325 H   0  0  0  0  0  0  0  0  0  0  0  0
    0.5128   -3.8371   -1.0508 H   0  0  0  0  0  0  0  0  0  0  0  0
   -2.5698   -1.8668    1.4297 H   0  0  0  0  0  0  0  0  0  0  0  0
   -3.7992   -2.8511    0.5911 H   0  0  0  0  0  0  0  0  0  0  0  0
   -4.3631   -1.1363   -0.9468 H   0  0  0  0  0  0  0  0  0  0  0  0
   -2.6627   -0.8630   -1.2503 H   0  0  0  0  0  0  0  0  0  0  0  0
   -2.6626    0.2436    1.1610 H   0  0  0  0  0  0  0  0  0  0  0  0
   -4.3724    0.5697    0.8978 H   0  0  0  0  0  0  0  0  0  0  0  0
   -3.7501    2.0388   -1.1028 H   0  0  0  0  0  0  0  0  0  0  0  0
   -2.2066    1.1582   -1.2383 H   0  0  0  0  0  0  0  0  0  0  0  0
  1  2  1  0  0  0  0
  1 18  1  0  0  0  0
  1 19  1  0  0  0  0
  1 20  1  0  0  0  0
  2  3  1  0  0  0  0
  2 21  1  0  0  0  0
  2 22  1  0  0  0  0
  3  4  1  0  0  0  0
  3 23  1  0  0  0  0
  3 24  1  0  0  0  0
  4  5  1  0  0  0  0
  4 25  1  0  0  0  0
  4 26  1  0  0  0  0
  5  6  1  0  0  0  0
  5 27  1  0  0  0  0
  5 28  1  0  0  0  0
  6  7  1  0  0  0  0
  6 29  1  0  0  0  0
  6 30  1  0  0  0  0
  7  8  1  0  0  0  0
  8  9  1  0  0  0  0
  8 31  1  0  0  0  0
  8 32  1  0  0  0  0
  9 10  1  0  0  0  0
  9 33  1  0  0  0  0
  9 34  1  0  0  0  0
 10 11  1  0  0  0  0
 10 35  1  0  0  0  0
 10 36  1  0  0  0  0
 11 12  1  0  0  0  0
 11 37  1  0  0  0  0
 11 38  1  0  0  0  0
 12 13  1  0  0  0  0
 13 14  2  0  0  0  0
 13 15  1  0  0  0  0
 15 16  1  0  0  0  0
 15 39  1  0  0  0  0
 15 40  1  0  0  0  0
 16 17  1  0  0  0  0
 16 41  1  0  0  0  0
 16 42  1  0  0  0  0
 17 18  1  0  0  0  0
 17 43  1  0  0  0  0
 17 44  1  0  0  0  0
 18 45  1  0  0  0  0
 18 46  1  0  0  0  0
M  END
$$$$

 OpenBabel05152416213D

 33 34  0  0  0  0  0  0  0  0999 V2000
    1.0862   -0.0761   -0.2135 C   0  0  0  0  0  0  0  0  0  0  0  0
    0.5674   -0.6869    1.0875 C   0  0  0  0  0  0  0  0  0  0  0  0
    1.0625    0.0447    2.3849 C   0  0  0  0  0  0  0  0  0  0  0  0
    0.1816   -0.3751    3.6019 C   0  0  0  0  0  0  0  0  0  0  0  0
   -1.1822    0.3023    3.5725 C   0  0  0  0  0  0  0  0  0  0  0  0
   -0.9898    1.7928    3.5191 C   0  0  0  0  0  0  0  0  0  0  0  0
   -1.7979    2.5248    4.0692 O   0  0  0  0  0  0  0  0  0  0  0  0
    0.0144    2.3324    2.7917 N   0  0  0  0  0  0  0  0  0  0  0  0
    0.9581    1.5792    2.1738 C   0  0  0  0  0  0  0  0  0  0  0  0
    1.7282    2.1436    1.4109 O   0  0  0  0  0  0  0  0  0  0  0  0
    2.5053   -0.3922    2.7355 C   0  0  0  0  0  0  0  0  0  0  0  0
    2.7952   -1.7572    2.9856 C   0  0  0  0  0  0  0  0  0  0  0  0
    4.0910   -2.1662    3.3178 C   0  0  0  0  0  0  0  0  0  0  0  0
    5.1250   -1.2263    3.3999 C   0  0  0  0  0  0  0  0  0  0  0  0
    4.8528    0.1185    3.1728 C   0  0  0  0  0  0  0  0  0  0  0  0
    3.5697    0.5318    2.8609 C   0  0  0  0  0  0  0  0  0  0  0  0
    6.4423   -1.6219    3.7183 N   0  0  0  0  0  0  0  0  0  0  0  0
    0.6623    0.9443   -0.3368 H   0  0  0  0  0  0  0  0  0  0  0  0
    0.7218   -0.6549   -1.0833 H   0  0  0  0  0  0  0  0  0  0  0  0
    2.1940   -0.0321   -0.2083 H   0  0  0  0  0  0  0  0  0  0  0  0
   -0.5350   -0.6490    1.0062 H   0  0  0  0  0  0  0  0  0  0  0  0
    0.8362   -1.7649    1.1230 H   0  0  0  0  0  0  0  0  0  0  0  0
    0.6761   -0.0541    4.5471 H   0  0  0  0  0  0  0  0  0  0  0  0
    0.0577   -1.4805    3.6483 H   0  0  0  0  0  0  0  0  0  0  0  0
   -1.7849    0.0177    4.4588 H   0  0  0  0  0  0  0  0  0  0  0  0
   -1.7470   -0.0123    2.6736 H   0  0  0  0  0  0  0  0  0  0  0  0
    0.0580    3.3581    2.6713 H   0  0  0  0  0  0  0  0  0  0  0  0
    2.0224   -2.5146    2.9346 H   0  0  0  0  0  0  0  0  0  0  0  0
    4.2882   -3.2138    3.5094 H   0  0  0  0  0  0  0  0  0  0  0  0
    5.6354    0.8625    3.2418 H   0  0  0  0  0  0  0  0  0  0  0  0
    3.4580    1.5908    2.7345 H   0  0  0  0  0  0  0  0  0  0  0  0
    7.1951   -0.9190    3.7633 H   0  0  0  0  0  0  0  0  0  0  0  0
    6.6657   -2.6096    3.8981 H   0  0  0  0  0  0  0  0  0  0  0  0
  1  2  1  0  0  0  0
  1 18  1  0  0  0  0
  1 19  1  0  0  0  0
  1 20  1  0  0  0  0
  2  3  1  0  0  0  0
  2 21  1  0  0  0  0
  2 22  1  0  0  0  0
  3  4  1  0  0  0  0
  3  9  1  0  0  0  0
  3 11  1  0  0  0  0
  4  5  1  0  0  0  0
  4 23  1  0  0  0  0
  4 24  1  0  0  0  0
  5  6  1  0  0  0  0
  5 25  1  0  0  0  0
  5 26  1  0  0  0  0
  6  7  2  0  0  0  0
  6  8  1  0  0  0  0
  8  9  1  0  0  0  0
  8 27  1  0  0  0  0
  9 10  2  0  0  0  0
 11 12  2  0  0  0  0
 11 16  1  0  0  0  0
 12 13  1  0  0  0  0
 12 28  1  0  0  0  0
 13 14  2  0  0  0  0
 13 29  1  0  0  0  0
 14 15  1  0  0  0  0
 14 17  1  0  0  0  0
 15 16  2  0  0  0  0
 15 30  1  0  0  0  0
 16 31  1  0  0  0  0
 17 32  1  0  0  0  0
 17 33  1  0  0  0  0
M  END
$$$$

 OpenBabel05152416213D

 37 38  0  0  0  0  0  0  0  0999 V2000
    1.6618   -0.1435    0.2981 C   0  0  0  0  0  0  0  0  0  0  0  0
    1.0701    1.1165    0.9140 C   0  0  0  0  0  0  0  0  0  0  0  0
    1.2535    2.3796    0.0473 C   0  0  0  0  0  0  0  0  0  0  0  0
    0.5338    2.4372   -1.3339 C   0  0  0  0  0  0  0  0  0  0  0  0
   -1.0415    2.5479   -1.3391 C   0  0  0  0  0  0  0  0  0  0  0  0
   -1.5027    3.8365   -0.5833 C   0  0  0  0  0  0  0  0  0  0  0  0
   -1.1002    5.1128   -1.1784 N   0  0  0  0  0  0  0  0  0  0  0  0
   -1.4438    6.3239   -0.7222 C   0  0  0  0  0  0  0  0  0  0  0  0
   -0.9362    7.3006   -1.4941 N   0  0  0  0  0  0  0  0  0  0  0  0
   -0.2657    6.6170   -2.4455 C   0  0  0  0  0  0  0  0  0  0  0  0
   -0.3578    5.2891   -2.2724 N   0  0  0  0  0  0  0  0  0  0  0  0
   -1.5482    2.6536   -2.7683 C   0  0  0  0  0  0  0  0  0  0  0  0
   -1.9685    2.7414   -3.9539 N   0  0  0  0  0  0  0  0  0  0  0  0
   -1.6006    1.2294   -0.7634 C   0  0  0  0  0  0  0  0  0  0  0  0
   -2.4067    1.1903    0.4000 C   0  0  0  0  0  0  0  0  0  0  0  0
   -2.8574   -0.0262    0.9163 C   0  0  0  0  0  0  0  0  0  0  0  0
   -2.5202   -1.2229    0.2835 C   0  0  0  0  0  0  0  0  0  0  0  0
   -1.7405   -1.2083   -0.8708 C   0  0  0  0  0  0  0  0  0  0  0  0
   -1.2914    0.0037   -1.3924 C   0  0  0  0  0  0  0  0  0  0  0  0
   -3.0799   -2.7444    0.9328 Cl  0  0  0  0  0  0  0  0  0  0  0  0
    1.1827   -0.4001   -0.6641 H   0  0  0  0  0  0  0  0  0  0  0  0
    1.5301   -1.0143    0.9854 H   0  0  0  0  0  0  0  0  0  0  0  0
    2.7466    0.0004    0.1229 H   0  0  0  0  0  0  0  0  0  0  0  0
    0.0233    0.9434    1.1767 H   0  0  0  0  0  0  0  0  0  0  0  0
    1.5935    1.2801    1.8726 H   0  0  0  0  0  0  0  0  0  0  0  0
    0.9623    3.2626    0.6437 H   0  0  0  0  0  0  0  0  0  0  0  0
    2.3435    2.4788   -0.1332 H   0  0  0  0  0  0  0  0  0  0  0  0
    0.9528    3.3180   -1.8523 H   0  0  0  0  0  0  0  0  0  0  0  0
    0.8770    1.5789   -1.9411 H   0  0  0  0  0  0  0  0  0  0  0  0
   -2.6158    3.8339   -0.5638 H   0  0  0  0  0  0  0  0  0  0  0  0
   -1.1584    3.8099    0.4722 H   0  0  0  0  0  0  0  0  0  0  0  0
   -2.0632    6.4943    0.1518 H   0  0  0  0  0  0  0  0  0  0  0  0
    0.2811    7.0830   -3.2554 H   0  0  0  0  0  0  0  0  0  0  0  0
   -2.6737    2.0901    0.9310 H   0  0  0  0  0  0  0  0  0  0  0  0
   -3.4619   -0.0319    1.8127 H   0  0  0  0  0  0  0  0  0  0  0  0
   -1.4735   -2.1316   -1.3664 H   0  0  0  0  0  0  0  0  0  0  0  0
   -0.6802   -0.0096   -2.2829 H   0  0  0  0  0  0  0  0  0  0  0  0
  1  2  1  0  0  0  0
  1 21  1  0  0  0  0
  1 22  1  0  0  0  0
  1 23  1  0  0  0  0
  2  3  1  0  0  0  0
  2 24  1  0  0  0  0
  2 25  1  0  0  0  0
  3  4  1  0  0  0  0
  3 26  1  0  0  0  0
  3 27  1  0  0  0  0
  4  5  1  0  0  0  0
  4 28  1  0  0  0  0
  4 29  1  0  0  0  0
  5  6  1  0  0  0  0
  5 12  1  0  0  0  0
  5 14  1  0  0  0  0
  6  7  1  0  0  0  0
  6 30  1  0  0  0  0
  6 31  1  0  0  0  0
  7  8  1  0  0  0  0
  7 11  1  0  0  0  0
  8  9  2  0  0  0  0
  8 32  1  0  0  0  0
  9 10  1  0  0  0  0
 10 11  2  0  0  0  0
 10 33  1  0  0  0  0
 12 13  3  0  0  0  0
 14 15  2  0  0  0  0
 14 19  1  0  0  0  0
 15 16  1  0  0  0  0
 15 34  1  0  0  0  0
 16 17  2  0  0  0  0
 16 35  1  0  0  0  0
 17 18  1  0  0  0  0
 17 20  1  0  0  0  0
 18 19  2  0  0  0  0
 18 36  1  0  0  0  0
 19 37  1  0  0  0  0
M  END
$$$$

 OpenBabel05152416213D

 35 37  0  0  0  0  0  0  0  0999 V2000
   -1.9231    0.1004   -0.1829 C   0  0  0  0  0  0  0  0  0  0  0  0
   -1.2316    1.2927   -0.0245 C   0  0  0  0  0  0  0  0  0  0  0  0
    0.1625    1.2812    0.0295 C   0  0  0  0  0  0  0  0  0  0  0  0
    0.8675    0.0708    0.0217 C   0  0  0  0  0  0  0  0  0  0  0  0
    0.1740   -1.1631   -0.0717 C   0  0  0  0  0  0  0  0  0  0  0  0
   -1.2226   -1.0972   -0.2670 C   0  0  0  0  0  0  0  0  0  0  0  0
    0.8809   -2.5416    0.0084 C   0  0  0  0  0  0  0  0  0  0  0  0
    0.4737   -3.3153    1.3593 C   0  0  0  0  0  0  0  0  0  0  0  0
   -0.9691   -3.6306    1.5150 N   0  0  0  0  0  0  0  0  0  0  0  0
   -1.5842   -4.8340    1.4836 C   0  0  0  0  0  0  0  0  0  0  0  0
   -2.9219   -4.6996    1.4599 N   0  0  0  0  0  0  0  0  0  0  0  0
   -3.0949   -3.3696    1.5585 C   0  0  0  0  0  0  0  0  0  0  0  0
   -1.9248   -2.7229    1.6551 N   0  0  0  0  0  0  0  0  0  0  0  0
    0.5361   -3.2900   -1.2876 C   0  0  0  0  0  0  0  0  0  0  0  0
    0.7918   -2.6965   -2.5388 C   0  0  0  0  0  0  0  0  0  0  0  0
    0.3663   -3.3242   -3.7182 C   0  0  0  0  0  0  0  0  0  0  0  0
   -0.3251   -4.5395   -3.6597 C   0  0  0  0  0  0  0  0  0  0  0  0
   -0.5337   -5.1539   -2.4350 C   0  0  0  0  0  0  0  0  0  0  0  0
   -0.0778   -4.5481   -1.2810 C   0  0  0  0  0  0  0  0  0  0  0  0
   -0.7829   -5.1331   -4.7863 F   0  0  0  0  0  0  0  0  0  0  0  0
    2.2758   -2.3378    0.0459 O   0  0  0  0  0  0  0  0  0  0  0  0
    2.2191    0.1305    0.1090 F   0  0  0  0  0  0  0  0  0  0  0  0
   -3.0052    0.0936   -0.2418 H   0  0  0  0  0  0  0  0  0  0  0  0
   -1.7773    2.2243    0.0312 H   0  0  0  0  0  0  0  0  0  0  0  0
    0.7018    2.2146    0.0998 H   0  0  0  0  0  0  0  0  0  0  0  0
   -1.7944   -1.9903   -0.4603 H   0  0  0  0  0  0  0  0  0  0  0  0
    1.0521   -4.2671    1.3740 H   0  0  0  0  0  0  0  0  0  0  0  0
    0.8089   -2.7255    2.2407 H   0  0  0  0  0  0  0  0  0  0  0  0
   -1.0866   -5.7934    1.3878 H   0  0  0  0  0  0  0  0  0  0  0  0
   -4.0529   -2.8689    1.4996 H   0  0  0  0  0  0  0  0  0  0  0  0
    1.2982   -1.7406   -2.5959 H   0  0  0  0  0  0  0  0  0  0  0  0
    0.5521   -2.8590   -4.6738 H   0  0  0  0  0  0  0  0  0  0  0  0
   -1.0544   -6.1005   -2.3579 H   0  0  0  0  0  0  0  0  0  0  0  0
   -0.2263   -5.0863   -0.3992 H   0  0  0  0  0  0  0  0  0  0  0  0
    2.7282   -3.2206    0.0250 H   0  0  0  0  0  0  0  0  0  0  0  0
  1  2  2  0  0  0  0
  1  6  1  0  0  0  0
  1 23  1  0  0  0  0
  2  3  1  0  0  0  0
  2 24  1  0  0  0  0
  3  4  2  0  0  0  0
  3 25  1  0  0  0  0
  4  5  1  0  0  0  0
  4 22  1  0  0  0  0
  5  6  2  0  0  0  0
  5  7  1  0  0  0  0
  6 26  1  0  0  0  0
  7  8  1  0  0  0  0
  7 14  1  0  0  0  0
  7 21  1  0  0  0  0
  8  9  1  0  0  0  0
  8 27  1  0  0  0  0
  8 28  1  0  0  0  0
  9 10  1  0  0  0  0
  9 13  1  0  0  0  0
 10 11  2  0  0  0  0
 10 29  1  0  0  0  0
 11 12  1  0  0  0  0
 12 13  2  0  0  0  0
 12 30  1  0  0  0  0
 14 15  2  0  0  0  0
 14 19  1  0  0  0  0
 15 16  1  0  0  0  0
 15 31  1  0  0  0  0
 16 17  2  0  0  0  0
 16 32  1  0  0  0  0
 17 18  1  0  0  0  0
 17 20  1  0  0  0  0
 18 19  2  0  0  0  0
 18 33  1  0  0  0  0
 19 34  1  0  0  0  0
 21 35  1  0  0  0  0
M  END
$$$$

 OpenBabel05152416223D

 45 46  0  0  0  0  0  0  0  0999 V2000
    1.2464   -0.4375    0.6432 C   0  0  0  0  0  0  0  0  0  0  0  0
    0.4019   -1.3950    0.2327 C   0  0  0  0  0  0  0  0  0  0  0  0
   -1.1156   -1.3200    0.0708 C   0  0  0  0  0  0  0  0  0  0  0  0
   -1.5633   -1.9403   -1.2219 N   0  0  0  0  0  0  0  0  0  0  0  0
   -0.9165   -1.2593   -2.3659 C   0  0  0  0  0  0  0  0  0  0  0  0
   -1.4927   -1.6328   -3.7338 C   0  0  0  0  0  0  0  0  0  0  0  0
   -0.7741   -2.8490   -4.2428 C   0  0  0  0  0  0  0  0  0  0  0  0
    0.1689   -2.7320   -5.3110 C   0  0  0  0  0  0  0  0  0  0  0  0
    0.8820   -3.8517   -5.7692 C   0  0  0  0  0  0  0  0  0  0  0  0
    0.7120   -5.0634   -5.1180 C   0  0  0  0  0  0  0  0  0  0  0  0
   -0.1172   -5.1454   -4.0156 C   0  0  0  0  0  0  0  0  0  0  0  0
   -0.9784   -4.0863   -3.5867 C   0  0  0  0  0  0  0  0  0  0  0  0
   -2.0449   -4.1982   -2.4209 C   0  0  0  0  0  0  0  0  0  0  0  0
   -1.4605   -3.4338   -1.1765 C   0  0  0  0  0  0  0  0  0  0  0  0
   -2.5491   -5.6470   -2.0580 C   0  0  0  0  0  0  0  0  0  0  0  0
   -2.2317   -6.7690   -2.8466 C   0  0  0  0  0  0  0  0  0  0  0  0
   -2.4736   -8.0662   -2.4676 C   0  0  0  0  0  0  0  0  0  0  0  0
   -3.2174   -8.3251   -1.3415 C   0  0  0  0  0  0  0  0  0  0  0  0
   -3.7527   -7.2555   -0.6175 C   0  0  0  0  0  0  0  0  0  0  0  0
   -3.4131   -5.9205   -0.9544 C   0  0  0  0  0  0  0  0  0  0  0  0
    1.3610   -6.1682   -5.5661 O   0  0  0  0  0  0  0  0  0  0  0  0
    1.7464   -3.7421   -6.7941 O   0  0  0  0  0  0  0  0  0  0  0  0
    0.5455   -1.1906   -6.0934 Cl  0  0  0  0  0  0  0  0  0  0  0  0
    1.0125    1.6989   -1.6176 Br  0  0  0  0  0  0  0  0  0  0  0  0
    0.9716    0.5623    0.9731 H   0  0  0  0  0  0  0  0  0  0  0  0
    2.3094   -0.6745    0.6196 H   0  0  0  0  0  0  0  0  0  0  0  0
    0.8707   -2.3222   -0.0351 H   0  0  0  0  0  0  0  0  0  0  0  0
   -1.5763   -1.8718    0.9191 H   0  0  0  0  0  0  0  0  0  0  0  0
   -1.5127   -0.2793    0.1717 H   0  0  0  0  0  0  0  0  0  0  0  0
   -1.1106   -0.1740   -2.2598 H   0  0  0  0  0  0  0  0  0  0  0  0
    0.1908   -1.4096   -2.3659 H   0  0  0  0  0  0  0  0  0  0  0  0
   -1.2872   -0.7845   -4.4082 H   0  0  0  0  0  0  0  0  0  0  0  0
   -2.5971   -1.7321   -3.7177 H   0  0  0  0  0  0  0  0  0  0  0  0
   -0.0224   -6.0888   -3.5219 H   0  0  0  0  0  0  0  0  0  0  0  0
   -3.0048   -3.7065   -2.7000 H   0  0  0  0  0  0  0  0  0  0  0  0
   -0.4160   -3.7652   -1.0196 H   0  0  0  0  0  0  0  0  0  0  0  0
   -2.0255   -3.7441   -0.2731 H   0  0  0  0  0  0  0  0  0  0  0  0
   -1.8044   -6.7178   -3.8033 H   0  0  0  0  0  0  0  0  0  0  0  0
   -2.0786   -8.8610   -3.0875 H   0  0  0  0  0  0  0  0  0  0  0  0
   -3.4076   -9.3577   -1.0844 H   0  0  0  0  0  0  0  0  0  0  0  0
   -4.4113   -7.4795    0.2111 H   0  0  0  0  0  0  0  0  0  0  0  0
   -3.8314   -5.1245   -0.3482 H   0  0  0  0  0  0  0  0  0  0  0  0
    1.1525   -7.0557   -5.2334 H   0  0  0  0  0  0  0  0  0  0  0  0
    2.2859   -4.4893   -7.1035 H   0  0  0  0  0  0  0  0  0  0  0  0
    2.3260    1.3372   -0.9031 H   0  0  0  0  0  0  0  0  0  0  0  0
  1  2  2  0  0  0  0
  1 25  1  0  0  0  0
  1 26  1  0  0  0  0
  2  3  1  0  0  0  0
  2 27  1  0  0  0  0
  3  4  1  0  0  0  0
  3 28  1  0  0  0  0
  3 29  1  0  0  0  0
  4  5  1  0  0  0  0
  4 14  1  0  0  0  0
  5  6  1  0  0  0  0
  5 30  1  0  0  0  0
  5 31  1  0  0  0  0
  6  7  1  0  0  0  0
  6 32  1  0  0  0  0
  6 33  1  0  0  0  0
  7  8  2  0  0  0  0
  7 12  1  0  0  0  0
  8  9  1  0  0  0  0
  8 23  1  0  0  0  0
  9 10  2  0  0  0  0
  9 22  1  0  0  0  0
 10 11  1  0  0  0  0
 10 21  1  0  0  0  0
 11 12  2  0  0  0  0
 11 34  1  0  0  0  0
 12 13  1  0  0  0  0
 13 14  1  0  0  0  0
 13 15  1  0  0  0  0
 13 35  1  0  0  0  0
 14 36  1  0  0  0  0
 14 37  1  0  0  0  0
 15 16  2  0  0  0  0
 15 20  1  0  0  0  0
 16 17  1  0  0  0  0
 16 38  1  0  0  0  0
 17 18  2  0  0  0  0
 17 39  1  0  0  0  0
 18 19  1  0  0  0  0
 18 40  1  0  0  0  0
 19 20  2  0  0  0  0
 19 41  1  0  0  0  0
 20 42  1  0  0  0  0
 21 43  1  0  0  0  0
 22 44  1  0  0  0  0
 24 45  1  0  0  0  0
M  END
$$$$

 OpenBabel05152416223D

 56 57  0  0  0  0  0  0  0  0999 V2000
   -1.7251    0.8969   -0.1042 C   0  0  0  0  0  0  0  0  0  0  0  0
   -0.3430    2.2453   -0.0390 C   0  0  0  0  0  0  0  0  0  0  0  0
    1.5618    1.6391    0.1321 C   0  0  0  0  0  0  0  0  0  0  0  0
    1.8542   -0.5480    0.6840 C   0  0  0  0  0  0  0  0  0  0  0  0
    0.5463   -1.8380    0.4006 C   0  0  0  0  0  0  0  0  0  0  0  0
   -1.2010   -1.2406    0.4685 C   0  0  0  0  0  0  0  0  0  0  0  0
    1.9808   -0.8006    2.1012 N   0  0  0  0  0  0  0  0  0  0  0  0
    3.1914   -0.6077    2.6621 C   0  0  0  0  0  0  0  0  0  0  0  0
    3.3046   -0.7216    4.0984 S   0  0  0  0  0  0  0  0  0  0  0  0
    4.2555   -0.8651    1.7724 N   0  0  0  0  0  0  0  0  0  0  0  0
    5.0405   -2.0289    1.9623 C   0  0  0  0  0  0  0  0  0  0  0  0
    6.3909   -1.4727    2.2655 C   0  0  0  0  0  0  0  0  0  0  0  0
    6.8753   -0.5463    1.1117 C   0  0  0  0  0  0  0  0  0  0  0  0
    5.8465    0.5334    0.7468 C   0  0  0  0  0  0  0  0  0  0  0  0
    4.5439   -0.0937    0.5538 C   0  0  0  0  0  0  0  0  0  0  0  0
    8.1351    0.1298    1.5348 C   0  0  0  0  0  0  0  0  0  0  0  0
    9.2712   -0.5128    1.9421 C   0  0  0  0  0  0  0  0  0  0  0  0
   10.1981    0.4078    2.2652 N   0  0  0  0  0  0  0  0  0  0  0  0
    9.5989    1.5972    2.0477 C   0  0  0  0  0  0  0  0  0  0  0  0
    8.3393    1.4606    1.6093 N   0  0  0  0  0  0  0  0  0  0  0  0
    0.2475    0.0472   -0.9195 C   0  0  0  0  0  0  0  0  0  0  0  0
   -0.4588   -0.5212   -1.9508 C   0  0  0  0  0  0  0  0  0  0  0  0
   -1.9231   -1.0166   -2.1161 C   0  0  0  0  0  0  0  0  0  0  0  0
   -2.1420   -1.5051   -3.1896 O   0  0  0  0  0  0  0  0  0  0  0  0
   -3.0433   -0.9465   -1.2764 O   0  0  0  0  0  0  0  0  0  0  0  0
   -0.0580    0.5265    1.4964 C   0  0  0  0  0  0  0  0  0  0  0  0
    0.7045    1.1705    2.2335 O   0  0  0  0  0  0  0  0  0  0  0  0
   -1.2259    0.4350    2.2178 O   0  0  0  0  0  0  0  0  0  0  0  0
   -1.8763    1.1469   -1.1874 H   0  0  0  0  0  0  0  0  0  0  0  0
   -2.6439    1.3502    0.2654 H   0  0  0  0  0  0  0  0  0  0  0  0
   -0.6579    3.1263   -0.6439 H   0  0  0  0  0  0  0  0  0  0  0  0
   -0.5976    2.7297    0.9417 H   0  0  0  0  0  0  0  0  0  0  0  0
    2.1908    2.4254    0.5927 H   0  0  0  0  0  0  0  0  0  0  0  0
    1.7193    1.9504   -0.9548 H   0  0  0  0  0  0  0  0  0  0  0  0
    2.5703   -1.1568    0.1053 H   0  0  0  0  0  0  0  0  0  0  0  0
    0.8035   -2.8751    0.7604 H   0  0  0  0  0  0  0  0  0  0  0  0
    0.6637   -2.2470   -0.6628 H   0  0  0  0  0  0  0  0  0  0  0  0
   -1.2252   -1.5495    1.5493 H   0  0  0  0  0  0  0  0  0  0  0  0
   -1.7471   -2.1451    0.1539 H   0  0  0  0  0  0  0  0  0  0  0  0
    1.1623   -1.0582    2.7071 H   0  0  0  0  0  0  0  0  0  0  0  0
    4.9991   -2.6518    1.0364 H   0  0  0  0  0  0  0  0  0  0  0  0
    4.6347   -2.6613    2.7857 H   0  0  0  0  0  0  0  0  0  0  0  0
    7.0699   -2.3211    2.4279 H   0  0  0  0  0  0  0  0  0  0  0  0
    6.2681   -0.8703    3.1955 H   0  0  0  0  0  0  0  0  0  0  0  0
    7.0343   -1.1840    0.2129 H   0  0  0  0  0  0  0  0  0  0  0  0
    5.6856    1.2416    1.5872 H   0  0  0  0  0  0  0  0  0  0  0  0
    6.1259    1.0777   -0.1816 H   0  0  0  0  0  0  0  0  0  0  0  0
    3.8394    0.7284    0.3448 H   0  0  0  0  0  0  0  0  0  0  0  0
    4.5662   -0.7629   -0.3474 H   0  0  0  0  0  0  0  0  0  0  0  0
    9.4021   -1.5832    2.0079 H   0  0  0  0  0  0  0  0  0  0  0  0
   10.0757    2.5530    2.2085 H   0  0  0  0  0  0  0  0  0  0  0  0
    7.6825    2.2429    1.3838 H   0  0  0  0  0  0  0  0  0  0  0  0
    1.2955    0.0812   -1.3693 H   0  0  0  0  0  0  0  0  0  0  0  0
    0.2236   -0.7175   -2.8092 H   0  0  0  0  0  0  0  0  0  0  0  0
   -3.3363   -0.6147   -0.3926 H   0  0  0  0  0  0  0  0  0  0  0  0
   -1.8327    1.1798    2.3177 H   0  0  0  0  0  0  0  0  0  0  0  0
  1  2  1  0  0  0  0
  1  6  1  0  0  0  0
  1 29  1  0  0  0  0
  1 30  1  0  0  0  0
  2  3  1  0  0  0  0
  2 31  1  0  0  0  0
  2 32  1  0  0  0  0
  3  4  1  0  0  0  0
  3 33  1  0  0  0  0
  3 34  1  0  0  0  0
  4  5  1  0  0  0  0
  4  7  1  0  0  0  0
  4 35  1  0  0  0  0
  5  6  1  0  0  0  0
  5 36  1  0  0  0  0
  5 37  1  0  0  0  0
  6 38  1  0  0  0  0
  6 39  1  0  0  0  0
  7  8  1  0  0  0  0
  7 40  1  0  0  0  0
  8  9  2  0  0  0  0
  8 10  1  0  0  0  0
 10 11  1  0  0  0  0
 10 15  1  0  0  0  0
 11 12  1  0  0  0  0
 11 41  1  0  0  0  0
 11 42  1  0  0  0  0
 12 13  1  0  0  0  0
 12 43  1  0  0  0  0
 12 44  1  0  0  0  0
 13 14  1  0  0  0  0
 13 16  1  0  0  0  0
 13 45  1  0  0  0  0
 14 15  1  0  0  0  0
 14 46  1  0  0  0  0
 14 47  1  0  0  0  0
 15 48  1  0  0  0  0
 15 49  1  0  0  0  0
 16 17  2  0  0  0  0
 16 20  1  0  0  0  0
 17 18  1  0  0  0  0
 17 50  1  0  0  0  0
 18 19  2  0  0  0  0
 19 20  1  0  0  0  0
 19 51  1  0  0  0  0
 20 52  1  0  0  0  0
 21 22  2  0  0  0  0
 21 26  1  0  0  0  0
 21 53  1  0  0  0  0
 22 23  1  0  0  0  0
 22 54  1  0  0  0  0
 23 24  2  0  0  0  0
 23 25  1  0  0  0  0
 25 55  1  0  0  0  0
 26 27  2  0  0  0  0
 26 28  1  0  0  0  0
 28 56  1  0  0  0  0
M  END
$$$$

 OpenBabel05152416223D

 40 41  0  0  0  0  0  0  0  0999 V2000
   -0.2382    0.6207   -0.1445 C   0  0  0  0  0  0  0  0  0  0  0  0
   -0.8456   -0.7736   -0.1465 C   0  0  0  0  0  0  0  0  0  0  0  0
    0.6534   -0.5925    0.1352 C   0  0  0  0  0  0  0  0  0  0  0  0
    1.5647   -1.3957   -0.8189 C   0  0  0  0  0  0  0  0  0  0  0  0
    2.4227   -2.0761   -0.2860 O   0  0  0  0  0  0  0  0  0  0  0  0
    1.6304   -1.3612   -2.2920 C   0  0  0  0  0  0  0  0  0  0  0  0
    1.7676   -2.5436   -3.0914 C   0  0  0  0  0  0  0  0  0  0  0  0
    1.7989   -2.4711   -4.5298 C   0  0  0  0  0  0  0  0  0  0  0  0
    1.7298   -1.2198   -5.1354 C   0  0  0  0  0  0  0  0  0  0  0  0
    1.7416   -0.2080   -4.2817 C   0  0  0  0  0  0  0  0  0  0  0  0
    1.6594   -0.1633   -2.9295 C   0  0  0  0  0  0  0  0  0  0  0  0
    1.6199   -0.9228   -6.4929 O   0  0  0  0  0  0  0  0  0  0  0  0
    1.4597    0.3702   -7.1105 C   0  0  0  0  0  0  0  0  0  0  0  0
    0.1974    1.2488   -6.7213 C   0  0  0  0  0  0  0  0  0  0  0  0
    0.1650    1.9305   -5.3170 C   0  0  0  0  0  0  0  0  0  0  0  0
    1.4756    2.7970   -4.9545 C   0  0  0  0  0  0  0  0  0  0  0  0
    1.4243    4.1433   -4.7972 C   0  0  0  0  0  0  0  0  0  0  0  0
    2.6469    4.6217   -4.4452 N   0  0  0  0  0  0  0  0  0  0  0  0
    3.4472    3.5593   -4.3961 C   0  0  0  0  0  0  0  0  0  0  0  0
    2.8013    2.4361   -4.7217 N   0  0  0  0  0  0  0  0  0  0  0  0
    2.7191    1.7892    0.1455 Cl  0  0  0  0  0  0  0  0  0  0  0  0
   -0.2334    1.2319    0.7935 H   0  0  0  0  0  0  0  0  0  0  0  0
   -0.1062    1.0981   -1.1334 H   0  0  0  0  0  0  0  0  0  0  0  0
   -1.5091   -0.8442    0.7497 H   0  0  0  0  0  0  0  0  0  0  0  0
   -1.2815   -0.8564   -1.1677 H   0  0  0  0  0  0  0  0  0  0  0  0
    0.7784   -0.8805    1.2012 H   0  0  0  0  0  0  0  0  0  0  0  0
    1.8048   -3.4958   -2.6021 H   0  0  0  0  0  0  0  0  0  0  0  0
    1.8600   -3.3485   -5.1486 H   0  0  0  0  0  0  0  0  0  0  0  0
    1.7942    0.5556   -4.7776 H   0  0  0  0  0  0  0  0  0  0  0  0
    1.6453    0.8080   -2.4370 H   0  0  0  0  0  0  0  0  0  0  0  0
    2.3566    1.0143   -6.9663 H   0  0  0  0  0  0  0  0  0  0  0  0
    1.3864    0.2190   -8.2098 H   0  0  0  0  0  0  0  0  0  0  0  0
    0.1311    2.1129   -7.4198 H   0  0  0  0  0  0  0  0  0  0  0  0
   -0.7278    0.6465   -6.8880 H   0  0  0  0  0  0  0  0  0  0  0  0
   -0.7518    2.5335   -5.1702 H   0  0  0  0  0  0  0  0  0  0  0  0
   -0.1480    1.1333   -4.6014 H   0  0  0  0  0  0  0  0  0  0  0  0
    0.5466    4.7328   -4.9376 H   0  0  0  0  0  0  0  0  0  0  0  0
    4.5032    3.5466   -4.1258 H   0  0  0  0  0  0  0  0  0  0  0  0
    3.3978    1.5775   -4.7066 H   0  0  0  0  0  0  0  0  0  0  0  0
    2.8625    0.5024    0.6141 H   0  0  0  0  0  0  0  0  0  0  0  0
  1  2  1  0  0  0  0
  1  3  1  0  0  0  0
  1 22  1  0  0  0  0
  1 23  1  0  0  0  0
  2  3  1  0  0  0  0
  2 24  1  0  0  0  0
  2 25  1  0  0  0  0
  3  4  1  0  0  0  0
  3 26  1  0  0  0  0
  4  5  2  0  0  0  0
  4  6  1  0  0  0  0
  6  7  2  0  0  0  0
  6 11  1  0  0  0  0
  7  8  1  0  0  0  0
  7 27  1  0  0  0  0
  8  9  2  0  0  0  0
  8 28  1  0  0  0  0
  9 10  1  0  0  0  0
  9 12  1  0  0  0  0
 10 11  2  0  0  0  0
 10 29  1  0  0  0  0
 11 30  1  0  0  0  0
 12 13  1  0  0  0  0
 13 14  1  0  0  0  0
 13 31  1  0  0  0  0
 13 32  1  0  0  0  0
 14 15  1  0  0  0  0
 14 33  1  0  0  0  0
 14 34  1  0  0  0  0
 15 16  1  0  0  0  0
 15 35  1  0  0  0  0
 15 36  1  0  0  0  0
 16 17  2  0  0  0  0
 16 20  1  0  0  0  0
 17 18  1  0  0  0  0
 17 37  1  0  0  0  0
 18 19  2  0  0  0  0
 19 20  1  0  0  0  0
 19 38  1  0  0  0  0
 20 39  1  0  0  0  0
 21 40  1  0  0  0  0
M  END
$$$$

 OpenBabel05152416223D

 36 37  0  0  0  0  0  0  0  0999 V2000
    0.7228   -1.3218   -0.1958 C   0  0  0  0  0  0  0  0  0  0  0  0
   -0.7703   -1.1904   -0.4048 C   0  0  0  0  0  0  0  0  0  0  0  0
   -1.2430    0.0529    0.2213 N   0  0  0  0  0  0  0  0  0  0  0  0
   -0.6580    1.2718   -0.3623 C   0  0  0  0  0  0  0  0  0  0  0  0
    0.8449    1.2531   -0.1851 C   0  0  0  0  0  0  0  0  0  0  0  0
    1.3996   -0.0618   -0.6581 N   0  0  0  0  0  0  0  0  0  0  0  0
   -1.6206    0.0615    1.9772 S   0  0  0  0  0  0  0  0  0  0  0  0
   -0.3896    0.0783    2.8658 O   0  0  0  0  0  0  0  0  0  0  0  0
   -2.1093    1.4987    2.2013 O   0  0  0  0  0  0  0  0  0  0  0  0
   -2.6118   -1.3022    2.5732 C   0  0  0  0  0  0  0  0  0  0  0  0
   -2.1545   -2.6219    2.3289 C   0  0  0  0  0  0  0  0  0  0  0  0
   -2.9093   -3.7191    2.7332 C   0  0  0  0  0  0  0  0  0  0  0  0
   -4.1040   -3.5221    3.4114 C   0  0  0  0  0  0  0  0  0  0  0  0
   -4.5486   -2.2163    3.7156 C   0  0  0  0  0  0  0  0  0  0  0  0
   -3.7799   -1.1065    3.2952 C   0  0  0  0  0  0  0  0  0  0  0  0
   -4.2431    0.1760    3.6604 C   0  0  0  0  0  0  0  0  0  0  0  0
   -5.3968    0.3394    4.3631 C   0  0  0  0  0  0  0  0  0  0  0  0
   -6.1317   -0.7714    4.7318 C   0  0  0  0  0  0  0  0  0  0  0  0
   -5.6859   -2.0293    4.4041 N   0  0  0  0  0  0  0  0  0  0  0  0
    2.1989   -0.1024    2.4195 Cl  0  0  0  0  0  0  0  0  0  0  0  0
    0.8781   -1.6233    0.8567 H   0  0  0  0  0  0  0  0  0  0  0  0
    1.1599   -2.2115   -0.7179 H   0  0  0  0  0  0  0  0  0  0  0  0
   -1.3655   -2.0634   -0.0871 H   0  0  0  0  0  0  0  0  0  0  0  0
   -0.9468   -1.1395   -1.4953 H   0  0  0  0  0  0  0  0  0  0  0  0
   -0.8570    1.2756   -1.4525 H   0  0  0  0  0  0  0  0  0  0  0  0
   -1.1268    2.1955    0.0499 H   0  0  0  0  0  0  0  0  0  0  0  0
    1.0399    1.5346    0.8644 H   0  0  0  0  0  0  0  0  0  0  0  0
    1.3530    2.1043   -0.7087 H   0  0  0  0  0  0  0  0  0  0  0  0
    1.3186   -0.0549   -1.7013 H   0  0  0  0  0  0  0  0  0  0  0  0
   -1.2148   -2.8233    1.8362 H   0  0  0  0  0  0  0  0  0  0  0  0
   -2.5561   -4.7246    2.5170 H   0  0  0  0  0  0  0  0  0  0  0  0
   -4.6847   -4.3773    3.7261 H   0  0  0  0  0  0  0  0  0  0  0  0
   -3.7585    1.0876    3.4519 H   0  0  0  0  0  0  0  0  0  0  0  0
   -5.7052    1.3496    4.6123 H   0  0  0  0  0  0  0  0  0  0  0  0
   -7.0397   -0.6368    5.2768 H   0  0  0  0  0  0  0  0  0  0  0  0
    2.7919   -0.1647    1.1954 H   0  0  0  0  0  0  0  0  0  0  0  0
  1  2  1  0  0  0  0
  1  6  1  0  0  0  0
  1 21  1  0  0  0  0
  1 22  1  0  0  0  0
  2  3  1  0  0  0  0
  2 23  1  0  0  0  0
  2 24  1  0  0  0  0
  3  4  1  0  0  0  0
  3  7  1  0  0  0  0
  4  5  1  0  0  0  0
  4 25  1  0  0  0  0
  4 26  1  0  0  0  0
  5  6  1  0  0  0  0
  5 27  1  0  0  0  0
  5 28  1  0  0  0  0
  6 29  1  0  0  0  0
  7  8  2  0  0  0  0
  7  9  2  0  0  0  0
  7 10  1  0  0  0  0
 10 11  2  0  0  0  0
 10 15  1  0  0  0  0
 11 12  1  0  0  0  0
 11 30  1  0  0  0  0
 12 13  2  0  0  0  0
 12 31  1  0  0  0  0
 13 14  1  0  0  0  0
 13 32  1  0  0  0  0
 14 15  2  0  0  0  0
 14 19  1  0  0  0  0
 15 16  1  0  0  0  0
 16 17  2  0  0  0  0
 16 33  1  0  0  0  0
 17 18  1  0  0  0  0
 17 34  1  0  0  0  0
 18 19  2  0  0  0  0
 18 35  1  0  0  0  0
 20 36  1  0  0  0  0
M  END
$$$$

 OpenBabel05152416223D

 15 16  0  0  0  0  0  0  0  0999 V2000
   -2.2889   -0.0264    0.0003 C   0  0  0  0  0  0  0  0  0  0  0  0
   -1.5281   -1.1493    0.0005 N   0  0  0  0  0  0  0  0  0  0  0  0
   -0.2650   -0.6824   -0.0000 C   0  0  0  0  0  0  0  0  0  0  0  0
   -0.2749    0.6802   -0.0004 C   0  0  0  0  0  0  0  0  0  0  0  0
   -1.5475    1.1061   -0.0005 N   0  0  0  0  0  0  0  0  0  0  0  0
    0.9003    1.4333   -0.0004 C   0  0  0  0  0  0  0  0  0  0  0  0
    2.1295    0.7295    0.0006 C   0  0  0  0  0  0  0  0  0  0  0  0
    2.1396   -0.6950   -0.0002 C   0  0  0  0  0  0  0  0  0  0  0  0
    0.9202   -1.4151   -0.0003 C   0  0  0  0  0  0  0  0  0  0  0  0
    0.8659   -3.3328   -0.0006 Br  0  0  0  0  0  0  0  0  0  0  0  0
    3.8099   -1.6499   -0.0017 Br  0  0  0  0  0  0  0  0  0  0  0  0
    3.7876    1.7057    0.0040 Br  0  0  0  0  0  0  0  0  0  0  0  0
    0.8262    3.3509   -0.0018 Br  0  0  0  0  0  0  0  0  0  0  0  0
   -3.3715   -0.0353    0.0008 H   0  0  0  0  0  0  0  0  0  0  0  0
   -1.9008    2.0885   -0.0009 H   0  0  0  0  0  0  0  0  0  0  0  0
  1  2  2  0  0  0  0
  1  5  1  0  0  0  0
  1 14  1  0  0  0  0
  2  3  1  0  0  0  0
  3  4  2  0  0  0  0
  3  9  1  0  0  0  0
  4  5  1  0  0  0  0
  4  6  1  0  0  0  0
  5 15  1  0  0  0  0
  6  7  2  0  0  0  0
  6 13  1  0  0  0  0
  7  8  1  0  0  0  0
  7 12  1  0  0  0  0
  8  9  2  0  0  0  0
  8 11  1  0  0  0  0
  9 10  1  0  0  0  0
M  END
$$$$

 OpenBabel05152416223D

 34 35  0  0  0  0  0  0  0  0999 V2000
   -2.8024   -0.5559    0.0557 C   0  0  0  0  0  0  0  0  0  0  0  0
   -2.7322    0.8400    0.0578 C   0  0  0  0  0  0  0  0  0  0  0  0
   -1.4881    1.4811    0.0065 C   0  0  0  0  0  0  0  0  0  0  0  0
   -0.3045    0.7258   -0.0781 C   0  0  0  0  0  0  0  0  0  0  0  0
   -0.3985   -0.6698   -0.1914 C   0  0  0  0  0  0  0  0  0  0  0  0
   -1.6403   -1.3051   -0.0810 C   0  0  0  0  0  0  0  0  0  0  0  0
    0.8107   -1.4475   -0.4615 C   0  0  0  0  0  0  0  0  0  0  0  0
    0.6935   -2.6158   -0.8176 O   0  0  0  0  0  0  0  0  0  0  0  0
    2.1566   -0.8563   -0.3274 C   0  0  0  0  0  0  0  0  0  0  0  0
    2.2830    0.4973   -0.0725 C   0  0  0  0  0  0  0  0  0  0  0  0
    1.0412    1.3427   -0.0434 C   0  0  0  0  0  0  0  0  0  0  0  0
    1.1387    2.5660    0.0394 O   0  0  0  0  0  0  0  0  0  0  0  0
    3.8434    1.4477    0.1966 S   0  0  0  0  0  0  0  0  0  0  0  0
    5.1500    0.2423    0.6614 C   0  0  0  0  0  0  0  0  0  0  0  0
    4.9531   -0.5347    1.9870 C   0  0  0  0  0  0  0  0  0  0  0  0
    3.7208   -1.1802    2.1074 O   0  0  0  0  0  0  0  0  0  0  0  0
    3.5660   -1.9741   -0.5879 S   0  0  0  0  0  0  0  0  0  0  0  0
    3.1858   -3.6024    0.2024 C   0  0  0  0  0  0  0  0  0  0  0  0
    2.4573   -3.7954    1.5592 C   0  0  0  0  0  0  0  0  0  0  0  0
    1.2015   -3.1908    1.6352 O   0  0  0  0  0  0  0  0  0  0  0  0
   -3.7551   -1.0608    0.1355 H   0  0  0  0  0  0  0  0  0  0  0  0
   -3.6428    1.4186    0.1170 H   0  0  0  0  0  0  0  0  0  0  0  0
   -1.4532    2.5639    0.0343 H   0  0  0  0  0  0  0  0  0  0  0  0
   -1.7044   -2.3877   -0.1003 H   0  0  0  0  0  0  0  0  0  0  0  0
    5.3891   -0.3605   -0.2274 H   0  0  0  0  0  0  0  0  0  0  0  0
    6.0978    0.8014    0.7786 H   0  0  0  0  0  0  0  0  0  0  0  0
    5.7428   -1.3174    2.0354 H   0  0  0  0  0  0  0  0  0  0  0  0
    5.0818    0.1333    2.8591 H   0  0  0  0  0  0  0  0  0  0  0  0
    3.0280   -0.4843    2.2337 H   0  0  0  0  0  0  0  0  0  0  0  0
    2.6827   -4.1852   -0.5853 H   0  0  0  0  0  0  0  0  0  0  0  0
    4.1887   -4.0539    0.3744 H   0  0  0  0  0  0  0  0  0  0  0  0
    2.2902   -4.8908    1.6534 H   0  0  0  0  0  0  0  0  0  0  0  0
    3.0654   -3.5217    2.4475 H   0  0  0  0  0  0  0  0  0  0  0  0
    1.3570   -2.2623    1.9474 H   0  0  0  0  0  0  0  0  0  0  0  0
  1  2  2  0  0  0  0
  1  6  1  0  0  0  0
  1 21  1  0  0  0  0
  2  3  1  0  0  0  0
  2 22  1  0  0  0  0
  3  4  2  0  0  0  0
  3 23  1  0  0  0  0
  4  5  1  0  0  0  0
  4 11  1  0  0  0  0
  5  6  2  0  0  0  0
  5  7  1  0  0  0  0
  6 24  1  0  0  0  0
  7  8  2  0  0  0  0
  7  9  1  0  0  0  0
  9 10  2  0  0  0  0
  9 17  1  0  0  0  0
 10 11  1  0  0  0  0
 10 13  1  0  0  0  0
 11 12  2  0  0  0  0
 13 14  1  0  0  0  0
 14 15  1  0  0  0  0
 14 25  1  0  0  0  0
 14 26  1  0  0  0  0
 15 16  1  0  0  0  0
 15 27  1  0  0  0  0
 15 28  1  0  0  0  0
 16 29  1  0  0  0  0
 17 18  1  0  0  0  0
 18 19  1  0  0  0  0
 18 30  1  0  0  0  0
 18 31  1  0  0  0  0
 19 20  1  0  0  0  0
 19 32  1  0  0  0  0
 19 33  1  0  0  0  0
 20 34  1  0  0  0  0
M  END
$$$$

 OpenBabel05152416223D

 52 54  0  0  0  0  0  0  0  0999 V2000
    1.0620   -0.1003   -0.1065 C   0  0  0  0  0  0  0  0  0  0  0  0
    0.5842   -0.6290    1.2515 C   0  0  0  0  0  0  0  0  0  0  0  0
    1.0325    0.2669    2.4372 C   0  0  0  0  0  0  0  0  0  0  0  0
    0.4906    1.7049    2.3129 C   0  0  0  0  0  0  0  0  0  0  0  0
   -0.9117    1.7397    2.3333 O   0  0  0  0  0  0  0  0  0  0  0  0
    0.6155   -0.3547    3.6926 N   0  0  0  0  0  0  0  0  0  0  0  0
    1.5681   -0.7378    4.6875 C   0  0  0  0  0  0  0  0  0  0  0  0
    2.6571    0.0636    4.9267 N   0  0  0  0  0  0  0  0  0  0  0  0
    3.6097   -0.2548    5.8589 C   0  0  0  0  0  0  0  0  0  0  0  0
    3.4580   -1.4723    6.5175 C   0  0  0  0  0  0  0  0  0  0  0  0
    2.3924   -2.2630    6.2721 C   0  0  0  0  0  0  0  0  0  0  0  0
    1.4137   -1.9116    5.3849 N   0  0  0  0  0  0  0  0  0  0  0  0
    2.5052   -3.3854    7.0151 N   0  0  0  0  0  0  0  0  0  0  0  0
    3.6510   -3.2274    7.7117 C   0  0  0  0  0  0  0  0  0  0  0  0
    4.2527   -2.0639    7.4280 N   0  0  0  0  0  0  0  0  0  0  0  0
    1.6527   -4.5602    7.1036 C   0  0  0  0  0  0  0  0  0  0  0  0
    0.2781   -4.1493    7.6057 C   0  0  0  0  0  0  0  0  0  0  0  0
    1.5932   -5.2517    5.7465 C   0  0  0  0  0  0  0  0  0  0  0  0
    4.6872    0.6493    6.0931 N   0  0  0  0  0  0  0  0  0  0  0  0
    5.7757    0.4329    7.0342 C   0  0  0  0  0  0  0  0  0  0  0  0
    7.0683    0.3532    6.3052 C   0  0  0  0  0  0  0  0  0  0  0  0
    7.7075    1.5382    5.9472 C   0  0  0  0  0  0  0  0  0  0  0  0
    8.9342    1.4970    5.2922 C   0  0  0  0  0  0  0  0  0  0  0  0
    9.5227    0.2674    4.9796 C   0  0  0  0  0  0  0  0  0  0  0  0
    8.8810   -0.9272    5.3228 C   0  0  0  0  0  0  0  0  0  0  0  0
    7.6537   -0.8893    5.9898 C   0  0  0  0  0  0  0  0  0  0  0  0
    0.6481    0.9037   -0.3294 H   0  0  0  0  0  0  0  0  0  0  0  0
    0.7173   -0.7716   -0.9190 H   0  0  0  0  0  0  0  0  0  0  0  0
    2.1708   -0.0475   -0.1209 H   0  0  0  0  0  0  0  0  0  0  0  0
   -0.5232   -0.7278    1.2337 H   0  0  0  0  0  0  0  0  0  0  0  0
    0.9948   -1.6524    1.3893 H   0  0  0  0  0  0  0  0  0  0  0  0
    2.1434    0.3291    2.4077 H   0  0  0  0  0  0  0  0  0  0  0  0
    0.8764    2.3152    3.1529 H   0  0  0  0  0  0  0  0  0  0  0  0
    0.8777    2.2062    1.3967 H   0  0  0  0  0  0  0  0  0  0  0  0
   -1.2267    1.3676    1.4686 H   0  0  0  0  0  0  0  0  0  0  0  0
   -0.3708   -0.6365    3.8034 H   0  0  0  0  0  0  0  0  0  0  0  0
    4.0575   -3.9452    8.4127 H   0  0  0  0  0  0  0  0  0  0  0  0
    2.0899   -5.2810    7.8354 H   0  0  0  0  0  0  0  0  0  0  0  0
   -0.1825   -3.4268    6.9026 H   0  0  0  0  0  0  0  0  0  0  0  0
   -0.3706   -5.0424    7.7005 H   0  0  0  0  0  0  0  0  0  0  0  0
    0.3831   -3.6664    8.6020 H   0  0  0  0  0  0  0  0  0  0  0  0
    2.6195   -5.5489    5.4358 H   0  0  0  0  0  0  0  0  0  0  0  0
    0.9623   -6.1607    5.8134 H   0  0  0  0  0  0  0  0  0  0  0  0
    1.1742   -4.5651    4.9836 H   0  0  0  0  0  0  0  0  0  0  0  0
    4.6957    1.5292    5.5552 H   0  0  0  0  0  0  0  0  0  0  0  0
    5.7930    1.2323    7.8018 H   0  0  0  0  0  0  0  0  0  0  0  0
    5.7142   -0.4621    7.6401 H   0  0  0  0  0  0  0  0  0  0  0  0
    7.2535    2.4896    6.1945 H   0  0  0  0  0  0  0  0  0  0  0  0
    9.4256    2.4227    5.0338 H   0  0  0  0  0  0  0  0  0  0  0  0
   10.4760    0.2438    4.4724 H   0  0  0  0  0  0  0  0  0  0  0  0
    9.3365   -1.8787    5.0767 H   0  0  0  0  0  0  0  0  0  0  0  0
    7.1641   -1.8219    6.2540 H   0  0  0  0  0  0  0  0  0  0  0  0
  1  2  1  0  0  0  0
  1 27  1  0  0  0  0
  1 28  1  0  0  0  0
  1 29  1  0  0  0  0
  2  3  1  0  0  0  0
  2 30  1  0  0  0  0
  2 31  1  0  0  0  0
  3  4  1  0  0  0  0
  3  6  1  0  0  0  0
  3 32  1  0  0  0  0
  4  5  1  0  0  0  0
  4 33  1  0  0  0  0
  4 34  1  0  0  0  0
  5 35  1  0  0  0  0
  6  7  1  0  0  0  0
  6 36  1  0  0  0  0
  7  8  2  0  0  0  0
  7 12  1  0  0  0  0
  8  9  1  0  0  0  0
  9 10  2  0  0  0  0
  9 19  1  0  0  0  0
 10 11  1  0  0  0  0
 10 15  1  0  0  0  0
 11 12  2  0  0  0  0
 11 13  1  0  0  0  0
 13 14  1  0  0  0  0
 13 16  1  0  0  0  0
 14 15  2  0  0  0  0
 14 37  1  0  0  0  0
 16 17  1  0  0  0  0
 16 18  1  0  0  0  0
 16 38  1  0  0  0  0
 17 39  1  0  0  0  0
 17 40  1  0  0  0  0
 17 41  1  0  0  0  0
 18 42  1  0  0  0  0
 18 43  1  0  0  0  0
 18 44  1  0  0  0  0
 19 20  1  0  0  0  0
 19 45  1  0  0  0  0
 20 21  1  0  0  0  0
 20 46  1  0  0  0  0
 20 47  1  0  0  0  0
 21 22  2  0  0  0  0
 21 26  1  0  0  0  0
 22 23  1  0  0  0  0
 22 48  1  0  0  0  0
 23 24  2  0  0  0  0
 23 49  1  0  0  0  0
 24 25  1  0  0  0  0
 24 50  1  0  0  0  0
 25 26  2  0  0  0  0
 25 51  1  0  0  0  0
 26 52  1  0  0  0  0
M  END
$$$$

 OpenBabel05152416223D

 44 45  0  0  1  0  0  0  0  0999 V2000
   -1.0477   -1.2258   -1.4410 C   0  0  0  0  0  0  0  0  0  0  0  0
   -2.0945   -1.2106   -2.7982 C   0  0  1  0  0  0  0  0  0  0  0  0
   -3.4495   -2.0637   -3.6807 C   0  0  0  0  0  0  0  0  0  0  0  0
   -4.8404   -1.9609   -4.8065 C   0  0  0  0  0  0  0  0  0  0  0  0
   -5.3485   -1.9580   -6.4226 C   0  0  0  0  0  0  0  0  0  0  0  0
   -4.3476   -2.3628   -7.4673 C   0  0  0  0  0  0  0  0  0  0  0  0
   -3.6825   -1.3573   -8.0390 C   0  0  0  0  0  0  0  0  0  0  0  0
   -2.2641   -1.5635   -8.5198 C   0  0  0  0  0  0  0  0  0  0  0  0
   -2.0564   -0.7420   -9.7633 C   0  0  0  0  0  0  0  0  0  0  0  0
   -1.8604    0.6803   -9.1997 C   0  0  1  0  0  0  0  0  0  0  0  0
   -0.7991    0.4548   -8.1541 C   0  0  0  0  0  0  0  0  0  0  0  0
   -1.2312   -0.9068   -7.5036 C   0  0  1  0  0  0  0  0  0  0  0  0
   -1.8831   -0.7088   -6.1093 C   0  0  0  0  0  0  0  0  0  0  0  0
   -1.5703    0.5423   -5.3798 C   0  0  0  0  0  0  0  0  0  0  0  0
   -0.6094    0.4094   -4.4968 C   0  0  0  0  0  0  0  0  0  0  0  0
   -1.0412    0.9347   -3.1698 C   0  0  0  0  0  0  0  0  0  0  0  0
   -1.2008    2.1214   -3.1528 O   0  0  0  0  0  0  0  0  0  0  0  0
   -2.2758    0.1866   -2.9116 O   0  0  0  0  0  0  0  0  0  0  0  0
   -0.1194   -1.7620   -7.3692 O   0  0  0  0  0  0  0  0  0  0  0  0
   -1.5184    1.5901  -10.1964 O   0  0  0  0  0  0  0  0  0  0  0  0
   -0.6268   -2.0486   -0.8141 H   0  0  0  0  0  0  0  0  0  0  0  0
   -1.1682   -0.3342   -0.7490 H   0  0  0  0  0  0  0  0  0  0  0  0
   -0.0113   -0.8397   -1.7467 H   0  0  0  0  0  0  0  0  0  0  0  0
   -1.2614   -1.6672   -3.3936 H   0  0  0  0  0  0  0  0  0  0  0  0
   -3.2929   -3.1613   -3.6903 H   0  0  0  0  0  0  0  0  0  0  0  0
   -2.9740   -3.0117   -4.0128 H   0  0  0  0  0  0  0  0  0  0  0  0
   -5.4039   -2.8999   -4.5728 H   0  0  0  0  0  0  0  0  0  0  0  0
   -5.5465   -1.2023   -4.4182 H   0  0  0  0  0  0  0  0  0  0  0  0
   -6.2986   -2.5236   -6.6873 H   0  0  0  0  0  0  0  0  0  0  0  0
   -5.7602   -0.9576   -6.7182 H   0  0  0  0  0  0  0  0  0  0  0  0
   -4.0289   -3.3941   -7.5811 H   0  0  0  0  0  0  0  0  0  0  0  0
   -4.0213   -0.3391   -7.8513 H   0  0  0  0  0  0  0  0  0  0  0  0
   -2.1051   -2.6578   -8.6427 H   0  0  0  0  0  0  0  0  0  0  0  0
   -2.8751   -0.8692  -10.5013 H   0  0  0  0  0  0  0  0  0  0  0  0
   -1.1047   -1.0859  -10.2232 H   0  0  0  0  0  0  0  0  0  0  0  0
   -2.7031    1.1026   -8.6033 H   0  0  0  0  0  0  0  0  0  0  0  0
    0.2427    0.7574   -8.4217 H   0  0  0  0  0  0  0  0  0  0  0  0
   -0.7029    1.2268   -7.4119 H   0  0  0  0  0  0  0  0  0  0  0  0
   -2.9712   -0.6758   -5.9998 H   0  0  0  0  0  0  0  0  0  0  0  0
   -1.6908   -1.6133   -5.5142 H   0  0  0  0  0  0  0  0  0  0  0  0
   -2.3841    1.2614   -5.2340 H   0  0  0  0  0  0  0  0  0  0  0  0
    0.0801   -0.4142   -4.5275 H   0  0  0  0  0  0  0  0  0  0  0  0
    0.4119   -1.4534   -6.5899 H   0  0  0  0  0  0  0  0  0  0  0  0
   -2.3971    1.8691  -10.5757 H   0  0  0  0  0  0  0  0  0  0  0  0
  1 21  1  0  0  0  0
  1 22  1  0  0  0  0
  1 23  1  0  0  0  0
  1  2  1  0  0  0  0
  2  3  1  0  0  0  0
  2 18  1  0  0  0  0
  2 24  1  6  0  0  0
  3  4  1  0  0  0  0
  3 25  1  0  0  0  0
  3 26  1  0  0  0  0
  4  5  1  0  0  0  0
  4 27  1  0  0  0  0
  4 28  1  0  0  0  0
  5  6  1  0  0  0  0
  5 29  1  0  0  0  0
  5 30  1  0  0  0  0
  6  7  2  0  0  0  0
  6 31  1  0  0  0  0
  7  8  1  0  0  0  0
  7 32  1  0  0  0  0
  8  9  1  0  0  0  0
  8 12  1  0  0  0  0
  8 33  1  0  0  0  0
  9 10  1  0  0  0  0
  9 34  1  0  0  0  0
  9 35  1  0  0  0  0
 10 11  1  0  0  0  0
 10 20  1  0  0  0  0
 10 36  1  1  0  0  0
 11 12  1  0  0  0  0
 11 37  1  0  0  0  0
 11 38  1  0  0  0  0
 12 13  1  0  0  0  0
 12 19  1  1  0  0  0
 13 14  1  0  0  0  0
 13 39  1  0  0  0  0
 13 40  1  0  0  0  0
 14 15  2  0  0  0  0
 14 41  1  0  0  0  0
 15 16  1  0  0  0  0
 15 42  1  0  0  0  0
 16 18  1  0  0  0  0
 16 17  2  0  0  0  0
 19 43  1  0  0  0  0
 20 44  1  0  0  0  0
M  END
$$$$

 OpenBabel05152416223D

 28 29  0  0  0  0  0  0  0  0999 V2000
   -1.9535   -0.0035    0.0170 C   0  0  0  0  0  0  0  0  0  0  0  0
   -1.2780    1.2172    0.0099 C   0  0  0  0  0  0  0  0  0  0  0  0
    0.1110    1.2404   -0.0051 C   0  0  0  0  0  0  0  0  0  0  0  0
    0.8373    0.0564   -0.0058 C   0  0  0  0  0  0  0  0  0  0  0  0
    0.1807   -1.2008    0.0308 C   0  0  0  0  0  0  0  0  0  0  0  0
   -1.2347   -1.2075    0.0275 C   0  0  0  0  0  0  0  0  0  0  0  0
    0.9437   -2.4936    0.0031 C   0  0  0  0  0  0  0  0  0  0  0  0
    0.3400   -3.5447   -0.1616 O   0  0  0  0  0  0  0  0  0  0  0  0
    2.4286   -2.5318    0.0548 C   0  0  0  0  0  0  0  0  0  0  0  0
    3.1474   -3.1523   -0.9765 C   0  0  0  0  0  0  0  0  0  0  0  0
    4.5575   -3.1433   -0.9884 C   0  0  0  0  0  0  0  0  0  0  0  0
    5.2472   -2.5178    0.0815 C   0  0  0  0  0  0  0  0  0  0  0  0
    4.5256   -1.9072    1.1228 C   0  0  0  0  0  0  0  0  0  0  0  0
    3.1268   -1.9174    1.1048 C   0  0  0  0  0  0  0  0  0  0  0  0
    5.1870   -1.2989    2.1306 O   0  0  0  0  0  0  0  0  0  0  0  0
    6.5982   -2.5031    0.1012 O   0  0  0  0  0  0  0  0  0  0  0  0
    5.2639   -3.7456   -2.0809 N   0  3  0  0  0  0  0  0  0  0  0  0
    6.4548   -3.7421   -2.1207 O   0  0  0  0  0  0  0  0  0  0  0  0
    4.5995   -4.2896   -3.0805 O   0  5  0  0  0  0  0  0  0  0  0  0
    2.1810    0.1822   -0.0816 F   0  0  0  0  0  0  0  0  0  0  0  0
   -3.0362   -0.0114    0.0098 H   0  0  0  0  0  0  0  0  0  0  0  0
   -1.8239    2.1505    0.0027 H   0  0  0  0  0  0  0  0  0  0  0  0
    0.6433    2.1816   -0.0289 H   0  0  0  0  0  0  0  0  0  0  0  0
   -1.7918   -2.1378    0.0240 H   0  0  0  0  0  0  0  0  0  0  0  0
    2.6003   -3.6069   -1.7942 H   0  0  0  0  0  0  0  0  0  0  0  0
    2.5792   -1.4365    1.9075 H   0  0  0  0  0  0  0  0  0  0  0  0
    4.7311   -0.8495    2.8560 H   0  0  0  0  0  0  0  0  0  0  0  0
    7.1140   -2.1104    0.8190 H   0  0  0  0  0  0  0  0  0  0  0  0
  1  2  2  0  0  0  0
  1  6  1  0  0  0  0
  1 21  1  0  0  0  0
  2  3  1  0  0  0  0
  2 22  1  0  0  0  0
  3  4  2  0  0  0  0
  3 23  1  0  0  0  0
  4  5  1  0  0  0  0
  4 20  1  0  0  0  0
  5  6  2  0  0  0  0
  5  7  1  0  0  0  0
  6 24  1  0  0  0  0
  7  8  2  0  0  0  0
  7  9  1  0  0  0  0
  9 10  2  0  0  0  0
  9 14  1  0  0  0  0
 10 11  1  0  0  0  0
 10 25  1  0  0  0  0
 11 12  2  0  0  0  0
 11 17  1  0  0  0  0
 12 13  1  0  0  0  0
 12 16  1  0  0  0  0
 13 14  2  0  0  0  0
 13 15  1  0  0  0  0
 14 26  1  0  0  0  0
 15 27  1  0  0  0  0
 16 28  1  0  0  0  0
 17 18  2  0  0  0  0
 17 19  1  0  0  0  0
M  CHG  2  17   1  19  -1
M  END
$$$$

 OpenBabel05152416223D

 33 33  0  0  0  0  0  0  0  0999 V2000
   -1.9711   -1.8781    0.1289 C   0  0  0  0  0  0  0  0  0  0  0  0
   -0.6251   -1.5852    0.3255 C   0  0  0  0  0  0  0  0  0  0  0  0
   -0.1884   -0.2408    0.4399 C   0  0  0  0  0  0  0  0  0  0  0  0
   -1.1481    0.7902    0.3868 C   0  0  0  0  0  0  0  0  0  0  0  0
   -0.6686    2.1246    0.5005 C   0  0  0  0  0  0  0  0  0  0  0  0
    0.6705    2.4242    0.4532 C   0  0  0  0  0  0  0  0  0  0  0  0
    1.6026    1.4146    0.4963 C   0  0  0  0  0  0  0  0  0  0  0  0
    1.1823    0.0711    0.5792 C   0  0  0  0  0  0  0  0  0  0  0  0
    2.4142   -1.1639    0.8167 Cl  0  0  0  0  0  0  0  0  0  0  0  0
   -2.5227    0.4815    0.1961 C   0  0  0  0  0  0  0  0  0  0  0  0
   -2.9158   -0.8629    0.0613 C   0  0  0  0  0  0  0  0  0  0  0  0
   -3.8114    1.7226    0.0056 S   0  0  0  0  0  0  0  0  0  0  0  0
   -4.8415    1.4064   -1.0918 O   0  0  0  0  0  0  0  0  0  0  0  0
   -4.6987    1.8196    1.2548 O   0  0  0  0  0  0  0  0  0  0  0  0
   -3.2671    3.3830   -0.2980 N   0  0  0  0  0  0  0  0  0  0  0  0
   -2.4141    3.5507   -1.4942 C   0  0  0  0  0  0  0  0  0  0  0  0
   -3.1844    3.4509   -2.7752 C   0  0  0  0  0  0  0  0  0  0  0  0
   -4.2336    4.4548   -2.8036 N   0  0  0  0  0  0  0  0  0  0  0  0
    1.8110   -0.5804   -2.3907 Cl  0  0  0  0  0  0  0  0  0  0  0  0
   -2.2858   -2.9104    0.0079 H   0  0  0  0  0  0  0  0  0  0  0  0
    0.0788   -2.4002    0.3450 H   0  0  0  0  0  0  0  0  0  0  0  0
   -1.2787    2.9750    0.5744 H   0  0  0  0  0  0  0  0  0  0  0  0
    0.9726    3.4687    0.3987 H   0  0  0  0  0  0  0  0  0  0  0  0
    2.6466    1.6870    0.4862 H   0  0  0  0  0  0  0  0  0  0  0  0
   -3.9555   -1.1152   -0.1127 H   0  0  0  0  0  0  0  0  0  0  0  0
   -3.9296    4.1479   -0.0467 H   0  0  0  0  0  0  0  0  0  0  0  0
   -1.8745    4.5204   -1.4137 H   0  0  0  0  0  0  0  0  0  0  0  0
   -1.6508    2.7552   -1.5907 H   0  0  0  0  0  0  0  0  0  0  0  0
   -2.4742    3.6023   -3.6165 H   0  0  0  0  0  0  0  0  0  0  0  0
   -3.6010    2.4281   -2.8672 H   0  0  0  0  0  0  0  0  0  0  0  0
   -4.7909    4.2865   -3.6649 H   0  0  0  0  0  0  0  0  0  0  0  0
   -4.8806    4.3010   -1.9980 H   0  0  0  0  0  0  0  0  0  0  0  0
    2.7611   -0.0042   -1.5707 H   0  0  0  0  0  0  0  0  0  0  0  0
  1  2  2  0  0  0  0
  1 11  1  0  0  0  0
  1 20  1  0  0  0  0
  2  3  1  0  0  0  0
  2 21  1  0  0  0  0
  3  4  2  0  0  0  0
  3  8  1  0  0  0  0
  4  5  1  0  0  0  0
  4 10  1  0  0  0  0
  5  6  2  0  0  0  0
  5 22  1  0  0  0  0
  6  7  1  0  0  0  0
  6 23  1  0  0  0  0
  7  8  2  0  0  0  0
  7 24  1  0  0  0  0
  8  9  1  0  0  0  0
 10 11  2  0  0  0  0
 10 12  1  0  0  0  0
 11 25  1  0  0  0  0
 12 13  2  0  0  0  0
 12 14  2  0  0  0  0
 12 15  1  0  0  0  0
 15 16  1  0  0  0  0
 15 26  1  0  0  0  0
 16 17  1  0  0  0  0
 16 27  1  0  0  0  0
 16 28  1  0  0  0  0
 17 18  1  0  0  0  0
 17 29  1  0  0  0  0
 17 30  1  0  0  0  0
 18 31  1  0  0  0  0
 18 32  1  0  0  0  0
 19 33  1  0  0  0  0
M  END
$$$$

 OpenBabel05152416223D

 48 51  0  0  1  0  0  0  0  0999 V2000
    0.4832   -0.8903    0.1728 C   0  0  0  0  0  0  0  0  0  0  0  0
    0.2364   -1.3540    1.5202 C   0  0  0  0  0  0  0  0  0  0  0  0
    0.9980   -0.5034    2.6398 C   0  0  2  0  0  0  0  0  0  0  0  0
   -0.0729   -0.4465    3.7486 C   0  0  0  0  0  0  0  0  0  0  0  0
   -0.6460    0.8657    4.0389 C   0  0  0  0  0  0  0  0  0  0  0  0
   -0.2368    2.0331    3.3717 C   0  0  0  0  0  0  0  0  0  0  0  0
   -0.7841    3.2529    3.9358 C   0  0  0  0  0  0  0  0  0  0  0  0
   -1.7351    3.2319    5.0064 C   0  0  0  0  0  0  0  0  0  0  0  0
   -2.1911    2.0170    5.5226 C   0  0  0  0  0  0  0  0  0  0  0  0
   -1.6350    0.8554    5.0409 C   0  0  0  0  0  0  0  0  0  0  0  0
   -3.1321    1.9345    6.4944 O   0  0  0  0  0  0  0  0  0  0  0  0
    0.8280    1.9423    2.1820 C   0  0  0  0  0  0  0  0  0  0  0  0
    1.6677    0.8378    2.1464 C   0  0  0  0  0  0  0  0  0  0  0  0
    2.8473    0.7701    1.1188 C   0  0  0  0  0  0  0  0  0  0  0  0
    2.5296    1.0042   -0.2272 C   0  0  0  0  0  0  0  0  0  0  0  0
    1.2502    1.8828   -0.4132 C   0  0  0  0  0  0  0  0  0  0  0  0
    0.8820    2.8869    0.9299 C   0  0  1  0  0  0  0  0  0  0  0  0
    1.9344    4.0869    0.7828 C   0  0  0  0  0  0  0  0  0  0  0  0
    3.2624    3.6956    1.1763 C   0  0  0  0  0  0  0  0  0  0  0  0
    3.4918    0.9460   -1.2758 C   0  0  0  0  0  0  0  0  0  0  0  0
    4.8477    1.0828   -0.9660 C   0  0  0  0  0  0  0  0  0  0  0  0
    5.2087    1.2588    0.3656 C   0  0  0  0  0  0  0  0  0  0  0  0
    4.2626    1.0222    1.4074 C   0  0  0  0  0  0  0  0  0  0  0  0
    5.7860    1.1871   -1.9358 O   0  0  0  0  0  0  0  0  0  0  0  0
    0.0544    0.0996    0.3464 H   0  0  0  0  0  0  0  0  0  0  0  0
   -0.0852   -1.2831   -0.6768 H   0  0  0  0  0  0  0  0  0  0  0  0
    1.5492   -1.1130    0.0119 H   0  0  0  0  0  0  0  0  0  0  0  0
   -0.8865   -1.2460    1.5275 H   0  0  0  0  0  0  0  0  0  0  0  0
    0.4971   -2.4190    1.5821 H   0  0  0  0  0  0  0  0  0  0  0  0
    1.8591   -1.0883    3.0068 H   0  0  0  0  0  0  0  0  0  0  0  0
    0.3493   -0.8795    4.6666 H   0  0  0  0  0  0  0  0  0  0  0  0
   -0.9831   -1.0566    3.5295 H   0  0  0  0  0  0  0  0  0  0  0  0
   -0.4736    4.2387    3.6141 H   0  0  0  0  0  0  0  0  0  0  0  0
   -2.1337    4.1457    5.4444 H   0  0  0  0  0  0  0  0  0  0  0  0
   -1.9695   -0.0910    5.4595 H   0  0  0  0  0  0  0  0  0  0  0  0
   -3.5663    2.7007    6.8937 H   0  0  0  0  0  0  0  0  0  0  0  0
    0.2602    1.6557   -0.8449 H   0  0  0  0  0  0  0  0  0  0  0  0
    0.9321    1.2814   -1.3017 H   0  0  0  0  0  0  0  0  0  0  0  0
    0.6721    3.5660    1.7674 H   0  0  0  0  0  0  0  0  0  0  0  0
    1.8719    4.4125   -0.2695 H   0  0  0  0  0  0  0  0  0  0  0  0
    2.0821    5.0079    1.3978 H   0  0  0  0  0  0  0  0  0  0  0  0
    3.2227    2.9077    0.6205 H   0  0  0  0  0  0  0  0  0  0  0  0
    3.8503    3.4258    0.2841 H   0  0  0  0  0  0  0  0  0  0  0  0
    3.2183    3.1959    2.1878 H   0  0  0  0  0  0  0  0  0  0  0  0
    3.2168    1.0005   -2.3215 H   0  0  0  0  0  0  0  0  0  0  0  0
    6.2108    1.6536    0.5662 H   0  0  0  0  0  0  0  0  0  0  0  0
    4.6312    1.2869    2.3942 H   0  0  0  0  0  0  0  0  0  0  0  0
    5.6113    0.9376   -2.8556 H   0  0  0  0  0  0  0  0  0  0  0  0
  1  2  1  0  0  0  0
  1 25  1  0  0  0  0
  1 26  1  0  0  0  0
  1 27  1  0  0  0  0
  2  3  1  0  0  0  0
  2 28  1  0  0  0  0
  2 29  1  0  0  0  0
  3  4  1  0  0  0  0
  3 13  1  0  0  0  0
  3 30  1  1  0  0  0
  4  5  1  0  0  0  0
  4 31  1  0  0  0  0
  4 32  1  0  0  0  0
  5  6  2  0  0  0  0
  5 10  1  0  0  0  0
  6  7  1  0  0  0  0
  6 12  1  0  0  0  0
  7  8  2  0  0  0  0
  7 33  1  0  0  0  0
  8  9  1  0  0  0  0
  8 34  1  0  0  0  0
  9 10  2  0  0  0  0
  9 11  1  0  0  0  0
 10 35  1  0  0  0  0
 11 36  1  0  0  0  0
 12 13  2  0  0  0  0
 12 17  1  0  0  0  0
 13 14  1  0  0  0  0
 14 15  2  0  0  0  0
 14 23  1  0  0  0  0
 15 16  1  0  0  0  0
 15 20  1  0  0  0  0
 16 17  1  0  0  0  0
 16 37  1  0  0  0  0
 16 38  1  0  0  0  0
 17 39  1  1  0  0  0
 17 18  1  0  0  0  0
 18 19  1  0  0  0  0
 18 40  1  0  0  0  0
 18 41  1  0  0  0  0
 19 42  1  0  0  0  0
 19 43  1  0  0  0  0
 19 44  1  0  0  0  0
 20 21  2  0  0  0  0
 20 45  1  0  0  0  0
 21 22  1  0  0  0  0
 21 24  1  0  0  0  0
 22 23  2  0  0  0  0
 22 46  1  0  0  0  0
 23 47  1  0  0  0  0
 24 48  1  0  0  0  0
M  END
$$$$

 OpenBabel05152416223D

 42 44  0  0  0  0  0  0  0  0999 V2000
   -1.2256   -1.1608    0.0134 C   0  0  0  0  0  0  0  0  0  0  0  0
    0.1752   -1.2242    0.0069 C   0  0  0  0  0  0  0  0  0  0  0  0
    0.9305   -0.0431    0.0054 C   0  0  0  0  0  0  0  0  0  0  0  0
    0.2885    1.1913    0.0074 C   0  0  0  0  0  0  0  0  0  0  0  0
   -1.1012    1.2594    0.0094 C   0  0  0  0  0  0  0  0  0  0  0  0
   -1.8786    0.0842    0.0146 C   0  0  0  0  0  0  0  0  0  0  0  0
   -3.3638    0.1235    0.0357 C   0  0  0  0  0  0  0  0  0  0  0  0
   -4.0718    1.2572   -0.1096 C   0  0  0  0  0  0  0  0  0  0  0  0
   -5.5370    1.2852   -0.0965 C   0  0  0  0  0  0  0  0  0  0  0  0
   -6.2881    0.4351    0.7240 C   0  0  0  0  0  0  0  0  0  0  0  0
   -7.6827    0.5068    0.7264 C   0  0  0  0  0  0  0  0  0  0  0  0
   -8.3460    1.4163   -0.1324 C   0  0  0  0  0  0  0  0  0  0  0  0
   -7.5689    2.2543   -0.9611 C   0  0  0  0  0  0  0  0  0  0  0  0
   -6.1832    2.2018   -0.9229 C   0  0  0  0  0  0  0  0  0  0  0  0
   -9.8308    1.4905   -0.1343 C   0  0  0  0  0  0  0  0  0  0  0  0
  -10.5474    2.1922   -1.0279 C   0  0  0  0  0  0  0  0  0  0  0  0
  -12.0181    2.2294   -0.9936 C   0  0  0  0  0  0  0  0  0  0  0  0
  -12.7321    2.2096    0.2166 C   0  0  0  0  0  0  0  0  0  0  0  0
  -14.1291    2.2645    0.2038 C   0  0  0  0  0  0  0  0  0  0  0  0
  -14.8166    2.3093   -1.0171 C   0  0  0  0  0  0  0  0  0  0  0  0
  -14.1057    2.3143   -2.2194 C   0  0  0  0  0  0  0  0  0  0  0  0
  -12.7097    2.2938   -2.2074 C   0  0  0  0  0  0  0  0  0  0  0  0
  -16.1658    2.3535   -1.0467 O   0  0  0  0  0  0  0  0  0  0  0  0
   -8.6104   -0.6704    1.9292 Br  0  0  0  0  0  0  0  0  0  0  0  0
    2.2801   -0.0778    0.0025 O   0  0  0  0  0  0  0  0  0  0  0  0
   -1.7940   -2.0843    0.0140 H   0  0  0  0  0  0  0  0  0  0  0  0
    0.6666   -2.1881    0.0054 H   0  0  0  0  0  0  0  0  0  0  0  0
    0.8594    2.1095    0.0101 H   0  0  0  0  0  0  0  0  0  0  0  0
   -1.5361    2.2437    0.0189 H   0  0  0  0  0  0  0  0  0  0  0  0
   -3.8984   -0.8193    0.1280 H   0  0  0  0  0  0  0  0  0  0  0  0
   -3.5926    2.2075   -0.2932 H   0  0  0  0  0  0  0  0  0  0  0  0
   -5.7926   -0.2590    1.3913 H   0  0  0  0  0  0  0  0  0  0  0  0
   -8.0028    2.9716   -1.6380 H   0  0  0  0  0  0  0  0  0  0  0  0
   -5.6113    2.8623   -1.5649 H   0  0  0  0  0  0  0  0  0  0  0  0
  -10.3736    0.9080    0.5999 H   0  0  0  0  0  0  0  0  0  0  0  0
  -10.0755    2.7214   -1.8436 H   0  0  0  0  0  0  0  0  0  0  0  0
  -12.2161    2.1862    1.1689 H   0  0  0  0  0  0  0  0  0  0  0  0
  -14.6683    2.2727    1.1417 H   0  0  0  0  0  0  0  0  0  0  0  0
  -14.6275    2.3371   -3.1661 H   0  0  0  0  0  0  0  0  0  0  0  0
  -12.1681    2.2969   -3.1457 H   0  0  0  0  0  0  0  0  0  0  0  0
  -16.6939    2.3733   -0.2381 H   0  0  0  0  0  0  0  0  0  0  0  0
    2.7737   -0.9070   -0.0054 H   0  0  0  0  0  0  0  0  0  0  0  0
  1  2  2  0  0  0  0
  1  6  1  0  0  0  0
  1 26  1  0  0  0  0
  2  3  1  0  0  0  0
  2 27  1  0  0  0  0
  3  4  2  0  0  0  0
  3 25  1  0  0  0  0
  4  5  1  0  0  0  0
  4 28  1  0  0  0  0
  5  6  2  0  0  0  0
  5 29  1  0  0  0  0
  6  7  1  0  0  0  0
  7  8  2  0  0  0  0
  7 30  1  0  0  0  0
  8  9  1  0  0  0  0
  8 31  1  0  0  0  0
  9 10  2  0  0  0  0
  9 14  1  0  0  0  0
 10 11  1  0  0  0  0
 10 32  1  0  0  0  0
 11 12  2  0  0  0  0
 11 24  1  0  0  0  0
 12 13  1  0  0  0  0
 12 15  1  0  0  0  0
 13 14  2  0  0  0  0
 13 33  1  0  0  0  0
 14 34  1  0  0  0  0
 15 16  2  0  0  0  0
 15 35  1  0  0  0  0
 16 17  1  0  0  0  0
 16 36  1  0  0  0  0
 17 18  2  0  0  0  0
 17 22  1  0  0  0  0
 18 19  1  0  0  0  0
 18 37  1  0  0  0  0
 19 20  2  0  0  0  0
 19 38  1  0  0  0  0
 20 21  1  0  0  0  0
 20 23  1  0  0  0  0
 21 22  2  0  0  0  0
 21 39  1  0  0  0  0
 22 40  1  0  0  0  0
 23 41  1  0  0  0  0
 25 42  1  0  0  0  0
M  END
$$$$

 OpenBabel05152416223D

 47 49  0  0  0  0  0  0  0  0999 V2000
   -2.3926    0.8034    0.2290 C   0  0  0  0  0  0  0  0  0  0  0  0
   -1.0493    0.1162    0.1256 C   0  0  0  0  0  0  0  0  0  0  0  0
   -0.6959   -1.2562    0.0952 C   0  0  0  0  0  0  0  0  0  0  0  0
    0.7249   -1.2797    0.0430 C   0  0  0  0  0  0  0  0  0  0  0  0
    1.1243    0.0630    0.0236 C   0  0  0  0  0  0  0  0  0  0  0  0
    0.0569    0.8694    0.0611 N   0  0  0  0  0  0  0  0  0  0  0  0
    2.5101    0.6454   -0.0230 C   0  0  0  0  0  0  0  0  0  0  0  0
    1.6400   -2.4699    0.0026 C   0  0  0  0  0  0  0  0  0  0  0  0
    2.8566   -2.3106   -0.0107 O   0  0  0  0  0  0  0  0  0  0  0  0
    1.1552   -3.7269   -0.0227 O   0  0  0  0  0  0  0  0  0  0  0  0
    1.9105   -4.8774   -0.0286 C   0  0  0  0  0  0  0  0  0  0  0  0
   -1.6305   -2.4456    0.1307 C   0  0  0  0  0  0  0  0  0  0  0  0
   -1.1985   -3.5625    0.3399 O   0  0  0  0  0  0  0  0  0  0  0  0
   -3.0960   -2.3612   -0.0105 C   0  0  0  0  0  0  0  0  0  0  0  0
   -3.8668   -3.0082    0.9765 C   0  0  0  0  0  0  0  0  0  0  0  0
   -5.2566   -2.9638    0.9397 C   0  0  0  0  0  0  0  0  0  0  0  0
   -5.8947   -2.2691   -0.0739 C   0  0  0  0  0  0  0  0  0  0  0  0
   -5.1526   -1.6284   -1.0554 C   0  0  0  0  0  0  0  0  0  0  0  0
   -3.7402   -1.6794   -1.0772 C   0  0  0  0  0  0  0  0  0  0  0  0
   -2.9413   -0.9930   -2.1935 C   0  0  0  0  0  0  0  0  0  0  0  0
   -3.1824   -1.5676   -3.5431 C   0  0  0  0  0  0  0  0  0  0  0  0
   -2.1515   -2.2124   -4.2517 C   0  0  0  0  0  0  0  0  0  0  0  0
   -2.4111   -2.7275   -5.5233 C   0  0  0  0  0  0  0  0  0  0  0  0
   -3.6951   -2.6198   -6.0720 C   0  0  0  0  0  0  0  0  0  0  0  0
   -4.7047   -1.9688   -5.3699 C   0  0  0  0  0  0  0  0  0  0  0  0
   -4.4387   -1.4279   -4.1326 C   0  0  0  0  0  0  0  0  0  0  0  0
   -2.4236    1.4621    1.1130 H   0  0  0  0  0  0  0  0  0  0  0  0
   -2.5481    1.4413   -0.6686 H   0  0  0  0  0  0  0  0  0  0  0  0
   -3.2538    0.1462    0.3620 H   0  0  0  0  0  0  0  0  0  0  0  0
    0.0751    1.9143    0.0581 H   0  0  0  0  0  0  0  0  0  0  0  0
    2.6153    1.2654   -0.9367 H   0  0  0  0  0  0  0  0  0  0  0  0
    2.6543    1.2898    0.8689 H   0  0  0  0  0  0  0  0  0  0  0  0
    3.3202   -0.0962   -0.0265 H   0  0  0  0  0  0  0  0  0  0  0  0
    2.5485   -4.9074   -0.9362 H   0  0  0  0  0  0  0  0  0  0  0  0
    2.5374   -4.9241    0.8870 H   0  0  0  0  0  0  0  0  0  0  0  0
    1.2280   -5.7523   -0.0386 H   0  0  0  0  0  0  0  0  0  0  0  0
   -3.3858   -3.5260    1.7982 H   0  0  0  0  0  0  0  0  0  0  0  0
   -5.8434   -3.4502    1.7062 H   0  0  0  0  0  0  0  0  0  0  0  0
   -6.9745   -2.2141   -0.1064 H   0  0  0  0  0  0  0  0  0  0  0  0
   -5.7311   -1.0903   -1.7665 H   0  0  0  0  0  0  0  0  0  0  0  0
   -3.1864    0.0815   -2.2440 H   0  0  0  0  0  0  0  0  0  0  0  0
   -1.8574   -1.0767   -2.0299 H   0  0  0  0  0  0  0  0  0  0  0  0
   -1.1545   -2.3097   -3.8293 H   0  0  0  0  0  0  0  0  0  0  0  0
   -1.6207   -3.2097   -6.0801 H   0  0  0  0  0  0  0  0  0  0  0  0
   -3.9138   -3.0231   -7.0455 H   0  0  0  0  0  0  0  0  0  0  0  0
   -5.7007   -1.8587   -5.7712 H   0  0  0  0  0  0  0  0  0  0  0  0
   -5.2271   -0.8854   -3.6656 H   0  0  0  0  0  0  0  0  0  0  0  0
  1  2  1  0  0  0  0
  1 27  1  0  0  0  0
  1 28  1  0  0  0  0
  1 29  1  0  0  0  0
  2  3  2  0  0  0  0
  2  6  1  0  0  0  0
  3  4  1  0  0  0  0
  3 12  1  0  0  0  0
  4  5  2  0  0  0  0
  4  8  1  0  0  0  0
  5  6  1  0  0  0  0
  5  7  1  0  0  0  0
  6 30  1  0  0  0  0
  7 31  1  0  0  0  0
  7 32  1  0  0  0  0
  7 33  1  0  0  0  0
  8  9  2  0  0  0  0
  8 10  1  0  0  0  0
 10 11  1  0  0  0  0
 11 34  1  0  0  0  0
 11 35  1  0  0  0  0
 11 36  1  0  0  0  0
 12 13  2  0  0  0  0
 12 14  1  0  0  0  0
 14 15  2  0  0  0  0
 14 19  1  0  0  0  0
 15 16  1  0  0  0  0
 15 37  1  0  0  0  0
 16 17  2  0  0  0  0
 16 38  1  0  0  0  0
 17 18  1  0  0  0  0
 17 39  1  0  0  0  0
 18 19  2  0  0  0  0
 18 40  1  0  0  0  0
 19 20  1  0  0  0  0
 20 21  1  0  0  0  0
 20 41  1  0  0  0  0
 20 42  1  0  0  0  0
 21 22  2  0  0  0  0
 21 26  1  0  0  0  0
 22 23  1  0  0  0  0
 22 43  1  0  0  0  0
 23 24  2  0  0  0  0
 23 44  1  0  0  0  0
 24 25  1  0  0  0  0
 24 45  1  0  0  0  0
 25 26  2  0  0  0  0
 25 46  1  0  0  0  0
 26 47  1  0  0  0  0
M  END
$$$$

 OpenBabel05152416223D

 33 36  0  0  0  0  0  0  0  0999 V2000
    0.9724    0.0423   -0.0627 C   0  0  0  0  0  0  0  0  0  0  0  0
    0.5387   -0.8121    1.1124 C   0  0  0  0  0  0  0  0  0  0  0  0
   -0.0877   -0.2902    2.2900 C   0  0  0  0  0  0  0  0  0  0  0  0
   -0.4030    1.0847    2.4268 C   0  0  0  0  0  0  0  0  0  0  0  0
   -0.9935    1.5651    3.5881 C   0  0  0  0  0  0  0  0  0  0  0  0
   -1.2721    0.7264    4.6063 N   0  0  0  0  0  0  0  0  0  0  0  0
   -0.9994   -0.5968    4.5411 C   0  0  0  0  0  0  0  0  0  0  0  0
   -0.4025   -1.1677    3.3877 C   0  0  0  0  0  0  0  0  0  0  0  0
   -0.1054   -2.5665    3.3018 C   0  0  0  0  0  0  0  0  0  0  0  0
    0.4838   -3.0414    2.1137 C   0  0  0  0  0  0  0  0  0  0  0  0
    0.7920   -2.1960    1.0604 C   0  0  0  0  0  0  0  0  0  0  0  0
    1.3464   -2.8885    0.0331 N   0  0  0  0  0  0  0  0  0  0  0  0
    1.3974   -4.1760    0.4322 C   0  0  0  0  0  0  0  0  0  0  0  0
    1.8910   -5.2709   -0.2889 C   0  0  0  0  0  0  0  0  0  0  0  0
    1.8628   -6.5372    0.3229 C   0  0  0  0  0  0  0  0  0  0  0  0
    1.3473   -6.6867    1.6238 C   0  0  0  0  0  0  0  0  0  0  0  0
    0.8506   -5.5775    2.3261 C   0  0  0  0  0  0  0  0  0  0  0  0
    0.8848   -4.3181    1.7063 C   0  0  0  0  0  0  0  0  0  0  0  0
   -0.3895   -3.5455    4.4170 C   0  0  0  0  0  0  0  0  0  0  0  0
    0.7115    1.1090    0.0022 H   0  0  0  0  0  0  0  0  0  0  0  0
    0.5292   -0.3321   -1.0065 H   0  0  0  0  0  0  0  0  0  0  0  0
    2.0801    0.0032   -0.1305 H   0  0  0  0  0  0  0  0  0  0  0  0
   -0.2169    1.8229    1.6694 H   0  0  0  0  0  0  0  0  0  0  0  0
   -1.2311    2.6160    3.6847 H   0  0  0  0  0  0  0  0  0  0  0  0
   -1.2636   -1.1620    5.4125 H   0  0  0  0  0  0  0  0  0  0  0  0
    1.6713   -2.5161   -0.8895 H   0  0  0  0  0  0  0  0  0  0  0  0
    2.2891   -5.1589   -1.2897 H   0  0  0  0  0  0  0  0  0  0  0  0
    2.2398   -7.4067   -0.2022 H   0  0  0  0  0  0  0  0  0  0  0  0
    1.3326   -7.6648    2.0893 H   0  0  0  0  0  0  0  0  0  0  0  0
    0.4655   -5.7358    3.3167 H   0  0  0  0  0  0  0  0  0  0  0  0
   -1.0988   -4.3165    4.0540 H   0  0  0  0  0  0  0  0  0  0  0  0
    0.5676   -4.0019    4.7434 H   0  0  0  0  0  0  0  0  0  0  0  0
   -0.8408   -3.1339    5.3273 H   0  0  0  0  0  0  0  0  0  0  0  0
  1  2  1  0  0  0  0
  1 20  1  0  0  0  0
  1 21  1  0  0  0  0
  1 22  1  0  0  0  0
  2  3  2  0  0  0  0
  2 11  1  0  0  0  0
  3  4  1  0  0  0  0
  3  8  1  0  0  0  0
  4  5  2  0  0  0  0
  4 23  1  0  0  0  0
  5  6  1  0  0  0  0
  5 24  1  0  0  0  0
  6  7  2  0  0  0  0
  7  8  1  0  0  0  0
  7 25  1  0  0  0  0
  8  9  2  0  0  0  0
  9 10  1  0  0  0  0
  9 19  1  0  0  0  0
 10 11  2  0  0  0  0
 10 18  1  0  0  0  0
 11 12  1  0  0  0  0
 12 13  1  0  0  0  0
 12 26  1  0  0  0  0
 13 14  2  0  0  0  0
 13 18  1  0  0  0  0
 14 15  1  0  0  0  0
 14 27  1  0  0  0  0
 15 16  2  0  0  0  0
 15 28  1  0  0  0  0
 16 17  1  0  0  0  0
 16 29  1  0  0  0  0
 17 18  2  0  0  0  0
 17 30  1  0  0  0  0
 19 31  1  0  0  0  0
 19 32  1  0  0  0  0
 19 33  1  0  0  0  0
M  END
$$$$

 OpenBabel05152416223D

 40 41  0  0  0  0  0  0  0  0999 V2000
    0.5950    1.6442    0.0272 C   0  0  0  0  0  0  0  0  0  0  0  0
    1.7258    0.6505   -0.0537 C   0  0  0  0  0  0  0  0  0  0  0  0
    1.3892   -0.7038   -0.6115 N   0  0  0  0  0  0  0  0  0  0  0  0
    0.3536   -1.6510   -0.0603 C   0  0  0  0  0  0  0  0  0  0  0  0
   -1.1278   -1.2474   -0.2767 C   0  0  0  0  0  0  0  0  0  0  0  0
   -1.4889    0.0709    0.2845 N   0  0  0  0  0  0  0  0  0  0  0  0
   -0.7699    1.1555   -0.3908 C   0  0  0  0  0  0  0  0  0  0  0  0
   -3.2556    0.4109   -0.0481 S   0  0  0  0  0  0  0  0  0  0  0  0
   -3.5361    0.0657   -1.5193 O   0  0  0  0  0  0  0  0  0  0  0  0
   -4.0250   -0.7078    0.6767 O   0  0  0  0  0  0  0  0  0  0  0  0
   -3.9458    2.0545    0.3946 C   0  0  0  0  0  0  0  0  0  0  0  0
   -4.8977    2.1024    1.4158 C   0  0  0  0  0  0  0  0  0  0  0  0
   -5.3863    3.3232    1.8835 C   0  0  0  0  0  0  0  0  0  0  0  0
   -4.8765    4.5221    1.3776 C   0  0  0  0  0  0  0  0  0  0  0  0
   -3.9079    4.5223    0.3720 C   0  0  0  0  0  0  0  0  0  0  0  0
   -3.4783    3.2828   -0.1875 C   0  0  0  0  0  0  0  0  0  0  0  0
   -2.5893    3.3207   -1.2677 C   0  0  0  0  0  0  0  0  0  0  0  0
   -1.9502    4.4873   -1.6577 C   0  0  0  0  0  0  0  0  0  0  0  0
   -2.3069    5.6890   -1.0661 C   0  0  0  0  0  0  0  0  0  0  0  0
   -3.3176    5.7274   -0.1047 C   0  0  0  0  0  0  0  0  0  0  0  0
   -3.7895    7.3063    0.5131 Cl  0  0  0  0  0  0  0  0  0  0  0  0
    0.9408   -0.3690    2.7810 Cl  0  0  0  0  0  0  0  0  0  0  0  0
    0.8288    2.4863   -0.6816 H   0  0  0  0  0  0  0  0  0  0  0  0
    0.5793    2.1495    1.0262 H   0  0  0  0  0  0  0  0  0  0  0  0
    2.5553    1.1174   -0.6370 H   0  0  0  0  0  0  0  0  0  0  0  0
    2.2745    0.7247    0.8983 H   0  0  0  0  0  0  0  0  0  0  0  0
    1.2153   -0.5986   -1.6325 H   0  0  0  0  0  0  0  0  0  0  0  0
    0.5063   -2.0090    0.9650 H   0  0  0  0  0  0  0  0  0  0  0  0
    0.4944   -2.6340   -0.5671 H   0  0  0  0  0  0  0  0  0  0  0  0
   -1.7682   -2.0224    0.2161 H   0  0  0  0  0  0  0  0  0  0  0  0
   -1.3599   -1.2993   -1.3614 H   0  0  0  0  0  0  0  0  0  0  0  0
   -1.2534    2.0322    0.0035 H   0  0  0  0  0  0  0  0  0  0  0  0
   -0.7733    1.0048   -1.4965 H   0  0  0  0  0  0  0  0  0  0  0  0
   -5.2718    1.1910    1.8702 H   0  0  0  0  0  0  0  0  0  0  0  0
   -6.1346    3.3402    2.6626 H   0  0  0  0  0  0  0  0  0  0  0  0
   -5.2505    5.4466    1.7985 H   0  0  0  0  0  0  0  0  0  0  0  0
   -2.3104    2.4297   -1.7962 H   0  0  0  0  0  0  0  0  0  0  0  0
   -1.1769    4.4453   -2.4132 H   0  0  0  0  0  0  0  0  0  0  0  0
   -1.8030    6.5911   -1.3903 H   0  0  0  0  0  0  0  0  0  0  0  0
    1.9530   -0.9507    2.0057 H   0  0  0  0  0  0  0  0  0  0  0  0
  1  2  1  0  0  0  0
  1  7  1  0  0  0  0
  1 23  1  0  0  0  0
  1 24  1  0  0  0  0
  2  3  1  0  0  0  0
  2 25  1  0  0  0  0
  2 26  1  0  0  0  0
  3  4  1  0  0  0  0
  3 27  1  0  0  0  0
  4  5  1  0  0  0  0
  4 28  1  0  0  0  0
  4 29  1  0  0  0  0
  5  6  1  0  0  0  0
  5 30  1  0  0  0  0
  5 31  1  0  0  0  0
  6  7  1  0  0  0  0
  6  8  1  0  0  0  0
  7 32  1  0  0  0  0
  7 33  1  0  0  0  0
  8  9  2  0  0  0  0
  8 10  2  0  0  0  0
  8 11  1  0  0  0  0
 11 12  2  0  0  0  0
 11 16  1  0  0  0  0
 12 13  1  0  0  0  0
 12 34  1  0  0  0  0
 13 14  2  0  0  0  0
 13 35  1  0  0  0  0
 14 15  1  0  0  0  0
 14 36  1  0  0  0  0
 15 16  2  0  0  0  0
 15 20  1  0  0  0  0
 16 17  1  0  0  0  0
 17 18  2  0  0  0  0
 17 37  1  0  0  0  0
 18 19  1  0  0  0  0
 18 38  1  0  0  0  0
 19 20  2  0  0  0  0
 19 39  1  0  0  0  0
 20 21  1  0  0  0  0
 22 40  1  0  0  0  0
M  END
$$$$

 OpenBabel05152416223D

 47 49  0  0  0  0  0  0  0  0999 V2000
    0.4051    0.3756    0.1138 C   0  0  0  0  0  0  0  0  0  0  0  0
    0.3189    0.5319   -1.4079 C   0  0  0  0  0  0  0  0  0  0  0  0
    1.1609   -0.7764   -2.4364 S   0  0  0  0  0  0  0  0  0  0  0  0
    0.7336   -2.2153   -2.1081 O   0  0  0  0  0  0  0  0  0  0  0  0
    0.6464   -0.6558   -3.8814 O   0  0  0  0  0  0  0  0  0  0  0  0
    2.9309   -0.8251   -2.6434 N   0  0  0  0  0  0  0  0  0  0  0  0
    3.7521   -0.0765   -1.7573 C   0  0  0  0  0  0  0  0  0  0  0  0
    4.9031    0.6160   -2.1514 C   0  0  0  0  0  0  0  0  0  0  0  0
    5.6055    1.3800   -1.1967 C   0  0  0  0  0  0  0  0  0  0  0  0
    5.1338    1.4853    0.1253 C   0  0  0  0  0  0  0  0  0  0  0  0
    4.0027    0.7694    0.5250 C   0  0  0  0  0  0  0  0  0  0  0  0
    3.3768   -0.0329   -0.4377 C   0  0  0  0  0  0  0  0  0  0  0  0
    3.5220    0.8359    1.9538 C   0  0  0  0  0  0  0  0  0  0  0  0
    3.2529   -0.3150    2.6563 C   0  0  0  0  0  0  0  0  0  0  0  0
    2.7357   -0.3331    4.0855 C   0  0  0  0  0  0  0  0  0  0  0  0
    1.3811   -1.0483    4.1223 C   0  0  0  0  0  0  0  0  0  0  0  0
    1.4960   -2.4728    3.5546 C   0  0  0  0  0  0  0  0  0  0  0  0
    2.0713   -2.4567    2.1369 C   0  0  0  0  0  0  0  0  0  0  0  0
    3.4243   -1.7279    2.0983 C   0  0  0  0  0  0  0  0  0  0  0  0
    3.3224    2.2039    2.5699 C   0  0  0  0  0  0  0  0  0  0  0  0
    3.8469    2.6760    3.7664 C   0  0  0  0  0  0  0  0  0  0  0  0
    3.4147    3.9316    3.9848 N   0  0  0  0  0  0  0  0  0  0  0  0
    2.6192    4.2154    2.9277 C   0  0  0  0  0  0  0  0  0  0  0  0
    2.5542    3.1880    2.0625 N   0  0  0  0  0  0  0  0  0  0  0  0
    0.1903   -0.6771    0.3547 H   0  0  0  0  0  0  0  0  0  0  0  0
   -0.2662    1.0372    0.6791 H   0  0  0  0  0  0  0  0  0  0  0  0
    1.3447    0.7379    0.5316 H   0  0  0  0  0  0  0  0  0  0  0  0
   -0.7603    0.4617   -1.6409 H   0  0  0  0  0  0  0  0  0  0  0  0
    0.6932    1.5338   -1.7002 H   0  0  0  0  0  0  0  0  0  0  0  0
    3.3324   -1.2829   -3.4742 H   0  0  0  0  0  0  0  0  0  0  0  0
    5.2407    0.5843   -3.1793 H   0  0  0  0  0  0  0  0  0  0  0  0
    6.5097    1.9015   -1.4749 H   0  0  0  0  0  0  0  0  0  0  0  0
    5.6750    2.0752    0.8538 H   0  0  0  0  0  0  0  0  0  0  0  0
    2.5644   -0.6780   -0.1962 H   0  0  0  0  0  0  0  0  0  0  0  0
    3.4704   -0.8881    4.7087 H   0  0  0  0  0  0  0  0  0  0  0  0
    2.5976    0.6614    4.5392 H   0  0  0  0  0  0  0  0  0  0  0  0
    0.6489   -0.4565    3.5282 H   0  0  0  0  0  0  0  0  0  0  0  0
    1.0175   -1.1027    5.1708 H   0  0  0  0  0  0  0  0  0  0  0  0
    0.4897   -2.9449    3.5390 H   0  0  0  0  0  0  0  0  0  0  0  0
    2.1670   -3.0766    4.1997 H   0  0  0  0  0  0  0  0  0  0  0  0
    1.3509   -1.9491    1.4881 H   0  0  0  0  0  0  0  0  0  0  0  0
    2.1812   -3.4911    1.7509 H   0  0  0  0  0  0  0  0  0  0  0  0
    3.8363   -1.8008    1.0842 H   0  0  0  0  0  0  0  0  0  0  0  0
    4.1657   -2.2675    2.7130 H   0  0  0  0  0  0  0  0  0  0  0  0
    4.5096    2.1437    4.4315 H   0  0  0  0  0  0  0  0  0  0  0  0
    2.0961    5.1588    2.8162 H   0  0  0  0  0  0  0  0  0  0  0  0
    1.9736    3.1719    1.1854 H   0  0  0  0  0  0  0  0  0  0  0  0
  1  2  1  0  0  0  0
  1 25  1  0  0  0  0
  1 26  1  0  0  0  0
  1 27  1  0  0  0  0
  2  3  1  0  0  0  0
  2 28  1  0  0  0  0
  2 29  1  0  0  0  0
  3  4  2  0  0  0  0
  3  5  2  0  0  0  0
  3  6  1  0  0  0  0
  6  7  1  0  0  0  0
  6 30  1  0  0  0  0
  7  8  2  0  0  0  0
  7 12  1  0  0  0  0
  8  9  1  0  0  0  0
  8 31  1  0  0  0  0
  9 10  2  0  0  0  0
  9 32  1  0  0  0  0
 10 11  1  0  0  0  0
 10 33  1  0  0  0  0
 11 12  2  0  0  0  0
 11 13  1  0  0  0  0
 12 34  1  0  0  0  0
 13 14  2  0  0  0  0
 13 20  1  0  0  0  0
 14 15  1  0  0  0  0
 14 19  1  0  0  0  0
 15 16  1  0  0  0  0
 15 35  1  0  0  0  0
 15 36  1  0  0  0  0
 16 17  1  0  0  0  0
 16 37  1  0  0  0  0
 16 38  1  0  0  0  0
 17 18  1  0  0  0  0
 17 39  1  0  0  0  0
 17 40  1  0  0  0  0
 18 19  1  0  0  0  0
 18 41  1  0  0  0  0
 18 42  1  0  0  0  0
 19 43  1  0  0  0  0
 19 44  1  0  0  0  0
 20 21  2  0  0  0  0
 20 24  1  0  0  0  0
 21 22  1  0  0  0  0
 21 45  1  0  0  0  0
 22 23  2  0  0  0  0
 23 24  1  0  0  0  0
 23 46  1  0  0  0  0
 24 47  1  0  0  0  0
M  END
$$$$

 OpenBabel05152416223D

 55 56  0  0  0  0  0  0  0  0999 V2000
    0.6134    0.2924   -0.4000 C   0  0  0  0  0  0  0  0  0  0  0  0
    0.2719    0.8587    0.8309 O   0  0  0  0  0  0  0  0  0  0  0  0
    0.7775    0.7065    2.1027 C   0  0  0  0  0  0  0  0  0  0  0  0
   -0.1441    0.7480    3.1584 C   0  0  0  0  0  0  0  0  0  0  0  0
    0.2799    0.6285    4.4718 C   0  0  0  0  0  0  0  0  0  0  0  0
    1.6580    0.5098    4.7727 C   0  0  0  0  0  0  0  0  0  0  0  0
    2.5603    0.3821    3.7547 C   0  0  0  0  0  0  0  0  0  0  0  0
    2.1518    0.5124    2.4417 C   0  0  0  0  0  0  0  0  0  0  0  0
    2.2416    0.3611    6.1203 C   0  0  0  0  0  0  0  0  0  0  0  0
    1.8283    1.3975    7.1977 C   0  0  0  0  0  0  0  0  0  0  0  0
    0.3319    1.7326    7.3515 C   0  0  0  0  0  0  0  0  0  0  0  0
   -0.4619    0.6916    7.9059 O   0  0  0  0  0  0  0  0  0  0  0  0
   -0.5755   -0.5970    7.4430 C   0  0  0  0  0  0  0  0  0  0  0  0
   -1.7919   -1.1490    6.9642 C   0  0  0  0  0  0  0  0  0  0  0  0
   -1.7660   -2.3662    6.2760 C   0  0  0  0  0  0  0  0  0  0  0  0
   -0.5433   -2.8858    5.8605 C   0  0  0  0  0  0  0  0  0  0  0  0
    0.6187   -2.4877    6.5085 C   0  0  0  0  0  0  0  0  0  0  0  0
    0.5446   -1.4166    7.4221 C   0  0  0  0  0  0  0  0  0  0  0  0
    1.9351   -3.2034    6.2038 C   0  0  0  0  0  0  0  0  0  0  0  0
    2.1387   -4.4183    7.1232 C   0  0  0  0  0  0  0  0  0  0  0  0
    1.1337   -5.4561    6.9360 N   0  0  0  0  0  0  0  0  0  0  0  0
    1.3415   -6.7697    6.6726 C   0  0  0  0  0  0  0  0  0  0  0  0
    0.1212   -7.3809    6.4995 C   0  0  0  0  0  0  0  0  0  0  0  0
   -0.8594   -6.4898    6.7177 N   0  0  0  0  0  0  0  0  0  0  0  0
   -0.2197   -5.3822    7.0397 C   0  0  0  0  0  0  0  0  0  0  0  0
   -2.9862   -0.5256    7.0599 O   0  0  0  0  0  0  0  0  0  0  0  0
   -3.1229    0.8139    7.3226 C   0  0  0  0  0  0  0  0  0  0  0  0
    1.9829   -2.1001    1.0093 Cl  0  0  0  0  0  0  0  0  0  0  0  0
    0.0685    0.7983   -1.2221 H   0  0  0  0  0  0  0  0  0  0  0  0
    0.2434   -0.7576   -0.4840 H   0  0  0  0  0  0  0  0  0  0  0  0
    1.6803    0.4048   -0.6628 H   0  0  0  0  0  0  0  0  0  0  0  0
   -1.2079    0.8608    2.9825 H   0  0  0  0  0  0  0  0  0  0  0  0
   -0.5079    0.6207    5.2023 H   0  0  0  0  0  0  0  0  0  0  0  0
    3.5951    0.1563    4.0065 H   0  0  0  0  0  0  0  0  0  0  0  0
    2.9707    0.4521    1.7651 H   0  0  0  0  0  0  0  0  0  0  0  0
    2.1081   -0.6605    6.0991 H   0  0  0  0  0  0  0  0  0  0  0  0
    3.3338    0.2022    6.2229 H   0  0  0  0  0  0  0  0  0  0  0  0
    2.1920    1.0992    8.2034 H   0  0  0  0  0  0  0  0  0  0  0  0
    2.3743    2.3170    6.8987 H   0  0  0  0  0  0  0  0  0  0  0  0
    0.2339    2.6225    8.0022 H   0  0  0  0  0  0  0  0  0  0  0  0
   -0.0364    2.1742    6.3988 H   0  0  0  0  0  0  0  0  0  0  0  0
   -2.6765   -2.8701    5.9800 H   0  0  0  0  0  0  0  0  0  0  0  0
   -0.5031   -3.7160    5.1647 H   0  0  0  0  0  0  0  0  0  0  0  0
    1.4299   -1.1019    7.9593 H   0  0  0  0  0  0  0  0  0  0  0  0
    2.0135   -3.4475    5.1156 H   0  0  0  0  0  0  0  0  0  0  0  0
    2.8142   -2.5447    6.3892 H   0  0  0  0  0  0  0  0  0  0  0  0
    3.1602   -4.8182    6.9085 H   0  0  0  0  0  0  0  0  0  0  0  0
    2.1205   -4.0388    8.1648 H   0  0  0  0  0  0  0  0  0  0  0  0
    2.3172   -7.2338    6.6475 H   0  0  0  0  0  0  0  0  0  0  0  0
   -0.0892   -8.4099    6.2844 H   0  0  0  0  0  0  0  0  0  0  0  0
   -0.7519   -4.5251    7.3782 H   0  0  0  0  0  0  0  0  0  0  0  0
   -2.7336    1.0423    8.3334 H   0  0  0  0  0  0  0  0  0  0  0  0
   -2.5686    1.3854    6.5426 H   0  0  0  0  0  0  0  0  0  0  0  0
   -4.1863    1.0996    7.2848 H   0  0  0  0  0  0  0  0  0  0  0  0
    2.7402   -1.0957    0.4309 H   0  0  0  0  0  0  0  0  0  0  0  0
  1  2  1  0  0  0  0
  1 29  1  0  0  0  0
  1 30  1  0  0  0  0
  1 31  1  0  0  0  0
  2  3  1  0  0  0  0
  3  4  2  0  0  0  0
  3  8  1  0  0  0  0
  4  5  1  0  0  0  0
  4 32  1  0  0  0  0
  5  6  2  0  0  0  0
  5 33  1  0  0  0  0
  6  7  1  0  0  0  0
  6  9  1  0  0  0  0
  7  8  2  0  0  0  0
  7 34  1  0  0  0  0
  8 35  1  0  0  0  0
  9 10  1  0  0  0  0
  9 36  1  0  0  0  0
  9 37  1  0  0  0  0
 10 11  1  0  0  0  0
 10 38  1  0  0  0  0
 10 39  1  0  0  0  0
 11 12  1  0  0  0  0
 11 40  1  0  0  0  0
 11 41  1  0  0  0  0
 12 13  1  0  0  0  0
 13 14  2  0  0  0  0
 13 18  1  0  0  0  0
 14 15  1  0  0  0  0
 14 26  1  0  0  0  0
 15 16  2  0  0  0  0
 15 42  1  0  0  0  0
 16 17  1  0  0  0  0
 16 43  1  0  0  0  0
 17 18  2  0  0  0  0
 17 19  1  0  0  0  0
 18 44  1  0  0  0  0
 19 20  1  0  0  0  0
 19 45  1  0  0  0  0
 19 46  1  0  0  0  0
 20 21  1  0  0  0  0
 20 47  1  0  0  0  0
 20 48  1  0  0  0  0
 21 22  1  0  0  0  0
 21 25  1  0  0  0  0
 22 23  2  0  0  0  0
 22 49  1  0  0  0  0
 23 24  1  0  0  0  0
 23 50  1  0  0  0  0
 24 25  2  0  0  0  0
 25 51  1  0  0  0  0
 26 27  1  0  0  0  0
 27 52  1  0  0  0  0
 27 53  1  0  0  0  0
 27 54  1  0  0  0  0
 28 55  1  0  0  0  0
M  END
$$$$

 OpenBabel05152416223D

 69 71  0  0  0  0  0  0  0  0999 V2000
    1.0070   -0.1174   -0.3271 C   0  0  0  0  0  0  0  0  0  0  0  0
    0.5597   -0.9489    0.8513 C   0  0  0  0  0  0  0  0  0  0  0  0
    1.0863   -0.2899    2.0938 C   0  0  0  0  0  0  0  0  0  0  0  0
    0.5060    1.1634    2.2611 C   0  0  0  0  0  0  0  0  0  0  0  0
   -1.0076    1.0846    2.4181 C   0  0  0  0  0  0  0  0  0  0  0  0
   -1.3471    0.0517    3.5005 C   0  0  0  0  0  0  0  0  0  0  0  0
   -0.7610    0.5020    4.7614 N   0  0  0  0  0  0  0  0  0  0  0  0
   -1.6993    0.8380    5.6965 C   0  0  0  0  0  0  0  0  0  0  0  0
   -1.4887   -0.1092    6.9476 C   0  0  0  0  0  0  0  0  0  0  0  0
   -0.3157    0.0907    8.1123 C   0  0  0  0  0  0  0  0  0  0  0  0
    0.1235    1.5319    8.8438 C   0  0  0  0  0  0  0  0  0  0  0  0
   -0.5030    2.6410    9.8387 C   0  0  0  0  0  0  0  0  0  0  0  0
   -0.6205    1.9086   11.1292 C   0  0  0  0  0  0  0  0  0  0  0  0
    0.5616    0.6948    5.1229 C   0  0  0  0  0  0  0  0  0  0  0  0
    1.4710    0.0692    4.6209 O   0  0  0  0  0  0  0  0  0  0  0  0
    1.0093    1.7187    6.1334 C   0  0  0  0  0  0  0  0  0  0  0  0
    0.2278    3.0784    6.4367 C   0  0  0  0  0  0  0  0  0  0  0  0
   -1.1450    3.5341    7.0071 C   0  0  0  0  0  0  0  0  0  0  0  0
   -1.0431    4.8798    7.0651 N   0  0  0  0  0  0  0  0  0  0  0  0
    0.2162    5.2664    6.6643 C   0  0  0  0  0  0  0  0  0  0  0  0
    0.7568    6.5557    6.6044 C   0  0  0  0  0  0  0  0  0  0  0  0
    2.1050    6.7272    6.1901 C   0  0  0  0  0  0  0  0  0  0  0  0
    2.9066    5.6211    5.8780 C   0  0  0  0  0  0  0  0  0  0  0  0
    2.3617    4.3511    5.9403 C   0  0  0  0  0  0  0  0  0  0  0  0
    0.9947    4.2066    6.3157 C   0  0  0  0  0  0  0  0  0  0  0  0
   -2.5429    2.6729    7.5481 C   0  0  0  0  0  0  0  0  0  0  0  0
   -3.6973    2.7320    6.7258 C   0  0  0  0  0  0  0  0  0  0  0  0
   -4.7669    1.7709    6.8512 C   0  0  0  0  0  0  0  0  0  0  0  0
   -4.7980    0.7821    7.8318 C   0  0  0  0  0  0  0  0  0  0  0  0
   -3.8116    0.7435    8.7580 C   0  0  0  0  0  0  0  0  0  0  0  0
   -2.7550    1.6370    8.5723 C   0  0  0  0  0  0  0  0  0  0  0  0
   -5.7036   -0.2330    7.8713 F   0  0  0  0  0  0  0  0  0  0  0  0
    0.5649    0.8970   -0.3068 H   0  0  0  0  0  0  0  0  0  0  0  0
    0.6588   -0.5810   -1.2540 H   0  0  0  0  0  0  0  0  0  0  0  0
    2.1148   -0.0307   -0.2789 H   0  0  0  0  0  0  0  0  0  0  0  0
   -0.5485   -1.0484    0.8905 H   0  0  0  0  0  0  0  0  0  0  0  0
    0.9638   -1.9799    0.8042 H   0  0  0  0  0  0  0  0  0  0  0  0
    0.8176   -1.0277    2.8782 H   0  0  0  0  0  0  0  0  0  0  0  0
    2.1900   -0.2650    2.1365 H   0  0  0  0  0  0  0  0  0  0  0  0
    0.9299    1.7398    3.0970 H   0  0  0  0  0  0  0  0  0  0  0  0
    0.8061    1.8652    1.4756 H   0  0  0  0  0  0  0  0  0  0  0  0
   -1.4094    2.0939    2.6828 H   0  0  0  0  0  0  0  0  0  0  0  0
   -1.5088    0.7952    1.4735 H   0  0  0  0  0  0  0  0  0  0  0  0
   -2.4661    0.0567    3.4832 H   0  0  0  0  0  0  0  0  0  0  0  0
   -1.1473   -1.0124    3.3296 H   0  0  0  0  0  0  0  0  0  0  0  0
   -1.7179    1.9004    5.5509 H   0  0  0  0  0  0  0  0  0  0  0  0
   -2.7496    0.7059    5.3454 H   0  0  0  0  0  0  0  0  0  0  0  0
   -2.4968   -0.2580    7.2371 H   0  0  0  0  0  0  0  0  0  0  0  0
   -1.4737   -1.1614    6.6068 H   0  0  0  0  0  0  0  0  0  0  0  0
   -0.3997   -0.6593    8.8957 H   0  0  0  0  0  0  0  0  0  0  0  0
    0.5288   -0.3428    7.5458 H   0  0  0  0  0  0  0  0  0  0  0  0
    1.1708    1.9038    8.7663 H   0  0  0  0  0  0  0  0  0  0  0  0
   -0.3443    1.7984    8.0605 H   0  0  0  0  0  0  0  0  0  0  0  0
   -0.1347    3.6960    9.7313 H   0  0  0  0  0  0  0  0  0  0  0  0
   -1.5171    3.1074    9.7312 H   0  0  0  0  0  0  0  0  0  0  0  0
    0.3902    1.9204   11.5410 H   0  0  0  0  0  0  0  0  0  0  0  0
   -1.4824    2.2747   11.7279 H   0  0  0  0  0  0  0  0  0  0  0  0
   -0.8770    0.8410   10.9289 H   0  0  0  0  0  0  0  0  0  0  0  0
    1.5379    1.2395    6.9408 H   0  0  0  0  0  0  0  0  0  0  0  0
    2.0825    1.8527    5.9390 H   0  0  0  0  0  0  0  0  0  0  0  0
   -1.7841    5.5267    7.4142 H   0  0  0  0  0  0  0  0  0  0  0  0
    0.1611    7.4107    6.8670 H   0  0  0  0  0  0  0  0  0  0  0  0
    2.5445    7.7094    6.1155 H   0  0  0  0  0  0  0  0  0  0  0  0
    3.9491    5.7337    5.5826 H   0  0  0  0  0  0  0  0  0  0  0  0
    3.0432    3.5478    5.6952 H   0  0  0  0  0  0  0  0  0  0  0  0
   -3.6903    3.3989    5.8949 H   0  0  0  0  0  0  0  0  0  0  0  0
   -5.5443    1.7423    6.1176 H   0  0  0  0  0  0  0  0  0  0  0  0
   -3.7231   -0.0644    9.4843 H   0  0  0  0  0  0  0  0  0  0  0  0
   -2.1022    1.2325    9.2584 H   0  0  0  0  0  0  0  0  0  0  0  0
  1  2  1  0  0  0  0
  1 33  1  0  0  0  0
  1 34  1  0  0  0  0
  1 35  1  0  0  0  0
  2  3  1  0  0  0  0
  2 36  1  0  0  0  0
  2 37  1  0  0  0  0
  3  4  1  0  0  0  0
  3 38  1  0  0  0  0
  3 39  1  0  0  0  0
  4  5  1  0  0  0  0
  4 40  1  0  0  0  0
  4 41  1  0  0  0  0
  5  6  1  0  0  0  0
  5 42  1  0  0  0  0
  5 43  1  0  0  0  0
  6  7  1  0  0  0  0
  6 44  1  0  0  0  0
  6 45  1  0  0  0  0
  7  8  1  0  0  0  0
  7 14  1  0  0  0  0
  8  9  1  0  0  0  0
  8 46  1  0  0  0  0
  8 47  1  0  0  0  0
  9 10  1  0  0  0  0
  9 48  1  0  0  0  0
  9 49  1  0  0  0  0
 10 11  1  0  0  0  0
 10 50  1  0  0  0  0
 10 51  1  0  0  0  0
 11 12  1  0  0  0  0
 11 52  1  0  0  0  0
 11 53  1  0  0  0  0
 12 13  1  0  0  0  0
 12 54  1  0  0  0  0
 12 55  1  0  0  0  0
 13 56  1  0  0  0  0
 13 57  1  0  0  0  0
 13 58  1  0  0  0  0
 14 15  2  0  0  0  0
 14 16  1  0  0  0  0
 16 17  1  0  0  0  0
 16 59  1  0  0  0  0
 16 60  1  0  0  0  0
 17 18  2  0  0  0  0
 17 25  1  0  0  0  0
 18 19  1  0  0  0  0
 18 26  1  0  0  0  0
 19 20  1  0  0  0  0
 19 61  1  0  0  0  0
 20 21  2  0  0  0  0
 20 25  1  0  0  0  0
 21 22  1  0  0  0  0
 21 62  1  0  0  0  0
 22 23  2  0  0  0  0
 22 63  1  0  0  0  0
 23 24  1  0  0  0  0
 23 64  1  0  0  0  0
 24 25  2  0  0  0  0
 24 65  1  0  0  0  0
 26 27  2  0  0  0  0
 26 31  1  0  0  0  0
 27 28  1  0  0  0  0
 27 66  1  0  0  0  0
 28 29  2  0  0  0  0
 28 67  1  0  0  0  0
 29 30  1  0  0  0  0
 29 32  1  0  0  0  0
 30 31  2  0  0  0  0
 30 68  1  0  0  0  0
 31 69  1  0  0  0  0
M  END
$$$$

 OpenBabel05152416193D

 44 45  0  0  0  0  0  0  0  0999 V2000
   -1.4535    1.3103    0.1057 C   0  0  0  0  0  0  0  0  0  0  0  0
   -0.0383    1.3228   -0.1300 C   0  0  0  0  0  0  0  0  0  0  0  0
    0.7005    0.1490   -0.0961 C   0  0  0  0  0  0  0  0  0  0  0  0
    0.1613   -0.9602    0.4491 C   0  0  0  0  0  0  0  0  0  0  0  0
   -1.1924   -0.9926    0.6799 C   0  0  0  0  0  0  0  0  0  0  0  0
   -2.1647    0.0768    0.3307 C   0  0  0  0  0  0  0  0  0  0  0  0
   -3.8970   -0.1244    0.1471 C   0  0  0  0  0  0  0  0  0  0  0  0
   -4.8673   -0.8796   -1.2527 C   0  0  0  0  0  0  0  0  0  0  0  0
   -5.0745   -2.3673   -1.7684 C   0  0  0  0  0  0  0  0  0  0  0  0
   -4.9670   -2.7262   -3.1044 C   0  0  0  0  0  0  0  0  0  0  0  0
   -5.0353   -1.8065   -4.0514 C   0  0  0  0  0  0  0  0  0  0  0  0
   -5.1908   -0.4726   -3.6874 C   0  0  0  0  0  0  0  0  0  0  0  0
   -5.0622   -0.0121   -2.3398 C   0  0  0  0  0  0  0  0  0  0  0  0
   -4.8989   -2.2451   -5.3256 F   0  0  0  0  0  0  0  0  0  0  0  0
   -4.2945   -0.6295    1.4080 O   0  0  0  0  0  0  0  0  0  0  0  0
   -3.6690   -1.9025    1.6457 C   0  0  0  0  0  0  0  0  0  0  0  0
   -3.5103   -2.7349    0.3408 C   0  0  0  0  0  0  0  0  0  0  0  0
   -2.6463   -2.2079   -1.1700 C   0  0  0  0  0  0  0  0  0  0  0  0
   -1.3450   -2.2234   -1.6591 C   0  0  0  0  0  0  0  0  0  0  0  0
   -0.6157   -1.1747   -2.2438 C   0  0  0  0  0  0  0  0  0  0  0  0
    0.6214   -1.6308   -2.4030 N   0  0  0  0  0  0  0  0  0  0  0  0
    0.5636   -2.9255   -1.9403 C   0  0  0  0  0  0  0  0  0  0  0  0
   -0.6414   -3.2832   -1.5712 N   0  0  0  0  0  0  0  0  0  0  0  0
    1.9133    0.0292   -0.6886 F   0  0  0  0  0  0  0  0  0  0  0  0
    2.7017    0.7257    1.9624 Cl  0  0  0  0  0  0  0  0  0  0  0  0
   -1.9538    2.2516   -0.0250 H   0  0  0  0  0  0  0  0  0  0  0  0
    0.4949    2.2088   -0.4405 H   0  0  0  0  0  0  0  0  0  0  0  0
    0.7365   -1.8923    0.5123 H   0  0  0  0  0  0  0  0  0  0  0  0
   -1.3700   -2.0189    0.8992 H   0  0  0  0  0  0  0  0  0  0  0  0
   -4.1649    0.9570    0.0965 H   0  0  0  0  0  0  0  0  0  0  0  0
   -4.8760   -3.3511   -1.3098 H   0  0  0  0  0  0  0  0  0  0  0  0
   -4.6510   -3.7583   -3.3847 H   0  0  0  0  0  0  0  0  0  0  0  0
   -5.2722    0.2167   -4.4902 H   0  0  0  0  0  0  0  0  0  0  0  0
   -4.9822    1.0439   -2.1765 H   0  0  0  0  0  0  0  0  0  0  0  0
   -2.7644   -1.8974    2.2479 H   0  0  0  0  0  0  0  0  0  0  0  0
   -4.2922   -2.4416    2.4008 H   0  0  0  0  0  0  0  0  0  0  0  0
   -3.5958   -3.8149    0.5385 H   0  0  0  0  0  0  0  0  0  0  0  0
   -4.6405   -2.6418    0.4063 H   0  0  0  0  0  0  0  0  0  0  0  0
   -2.8828   -2.6325   -2.1265 H   0  0  0  0  0  0  0  0  0  0  0  0
   -2.7605   -1.1711   -1.5193 H   0  0  0  0  0  0  0  0  0  0  0  0
   -0.9682   -0.1309   -2.3768 H   0  0  0  0  0  0  0  0  0  0  0  0
    1.3890   -3.5496   -1.7806 H   0  0  0  0  0  0  0  0  0  0  0  0
   -1.0504   -4.1740   -1.1662 H   0  0  0  0  0  0  0  0  0  0  0  0
    3.3708    0.4300    0.7936 H   0  0  0  0  0  0  0  0  0  0  0  0
  1  2  2  0  0  0  0
  1  6  1  0  0  0  0
  1 26  1  0  0  0  0
  2  3  1  0  0  0  0
  2 27  1  0  0  0  0
  3  4  2  0  0  0  0
  3 24  1  0  0  0  0
  4  5  1  0  0  0  0
  4 28  1  0  0  0  0
  5  6  2  0  0  0  0
  5 29  1  0  0  0  0
  6  7  1  0  0  0  0
  7  8  1  0  0  0  0
  7 15  1  0  0  0  0
  7 30  1  0  0  0  0
  8  9  2  0  0  0  0
  8 13  1  0  0  0  0
  9 10  1  0  0  0  0
  9 31  1  0  0  0  0
 10 11  2  0  0  0  0
 10 32  1  0  0  0  0
 11 12  1  0  0  0  0
 11 14  1  0  0  0  0
 12 13  2  0  0  0  0
 12 33  1  0  0  0  0
 13 34  1  0  0  0  0
 15 16  1  0  0  0  0
 16 17  1  0  0  0  0
 16 35  1  0  0  0  0
 16 36  1  0  0  0  0
 17 18  1  0  0  0  0
 17 37  1  0  0  0  0
 17 38  1  0  0  0  0
 18 19  1  0  0  0  0
 18 39  1  0  0  0  0
 18 40  1  0  0  0  0
 19 20  2  0  0  0  0
 19 23  1  0  0  0  0
 20 21  1  0  0  0  0
 20 41  1  0  0  0  0
 21 22  2  0  0  0  0
 22 23  1  0  0  0  0
 22 42  1  0  0  0  0
 23 43  1  0  0  0  0
 25 44  1  0  0  0  0
M  END
$$$$

 OpenBabel05152416193D

 40 43  0  0  0  0  0  0  0  0999 V2000
    1.3840   -0.2250    0.0029 C   0  0  0  0  0  0  0  0  0  0  0  0
    0.8938    1.0801   -0.0038 C   0  0  0  0  0  0  0  0  0  0  0  0
   -0.4786    1.3052    0.0349 C   0  0  0  0  0  0  0  0  0  0  0  0
   -1.3822    0.2346   -0.0081 C   0  0  0  0  0  0  0  0  0  0  0  0
   -0.8832   -1.0788   -0.0163 C   0  0  0  0  0  0  0  0  0  0  0  0
    0.4977   -1.3034    0.0061 C   0  0  0  0  0  0  0  0  0  0  0  0
   -2.7871    0.4683   -0.0243 N   0  0  0  0  0  0  0  0  0  0  0  0
   -3.3726    1.7346   -0.2674 C   0  0  0  0  0  0  0  0  0  0  0  0
   -4.3421    2.2944    0.6018 C   0  0  0  0  0  0  0  0  0  0  0  0
   -4.7920    3.6459    0.3090 C   0  0  0  0  0  0  0  0  0  0  0  0
   -4.1680    4.2863   -0.8244 C   0  0  0  0  0  0  0  0  0  0  0  0
   -3.6181    3.5595   -1.7844 C   0  0  0  0  0  0  0  0  0  0  0  0
   -3.0220    2.3978   -1.4276 C   0  0  0  0  0  0  0  0  0  0  0  0
   -3.2209    4.4247   -2.8568 C   0  0  0  0  0  0  0  0  0  0  0  0
   -4.0905    4.8898   -3.6288 O   0  0  0  0  0  0  0  0  0  0  0  0
   -2.6270    5.3795   -2.2208 N   0  0  0  0  0  0  0  0  0  0  0  0
   -3.5995    5.6154   -1.2545 C   0  0  0  0  0  0  0  0  0  0  0  0
   -4.0879    6.7185   -1.0432 O   0  0  0  0  0  0  0  0  0  0  0  0
   -4.6070    1.6041    1.8407 N   0  0  0  0  0  0  0  0  0  0  0  0
   -5.5306    2.0300    2.8257 C   0  0  0  0  0  0  0  0  0  0  0  0
   -5.1627    2.1507    4.1842 C   0  0  0  0  0  0  0  0  0  0  0  0
   -6.1443    2.4421    5.1436 C   0  0  0  0  0  0  0  0  0  0  0  0
   -7.4655    2.6576    4.7480 C   0  0  0  0  0  0  0  0  0  0  0  0
   -7.8139    2.5599    3.4011 C   0  0  0  0  0  0  0  0  0  0  0  0
   -6.8502    2.2422    2.4502 C   0  0  0  0  0  0  0  0  0  0  0  0
    2.4494   -0.4020    0.0151 H   0  0  0  0  0  0  0  0  0  0  0  0
    1.5700    1.9226   -0.0313 H   0  0  0  0  0  0  0  0  0  0  0  0
   -0.8418    2.3173    0.0966 H   0  0  0  0  0  0  0  0  0  0  0  0
   -1.5584   -1.9249   -0.0292 H   0  0  0  0  0  0  0  0  0  0  0  0
    0.8870   -2.3107    0.0169 H   0  0  0  0  0  0  0  0  0  0  0  0
   -3.4272   -0.3279   -0.1346 H   0  0  0  0  0  0  0  0  0  0  0  0
   -5.4227    4.1205    1.0584 H   0  0  0  0  0  0  0  0  0  0  0  0
   -2.2137    2.0848   -2.0548 H   0  0  0  0  0  0  0  0  0  0  0  0
   -1.9040    5.6528   -2.9368 H   0  0  0  0  0  0  0  0  0  0  0  0
   -4.0334    0.7795    2.1013 H   0  0  0  0  0  0  0  0  0  0  0  0
   -4.1312    2.0319    4.5036 H   0  0  0  0  0  0  0  0  0  0  0  0
   -5.8974    2.4929    6.1953 H   0  0  0  0  0  0  0  0  0  0  0  0
   -8.2205    2.8960    5.4844 H   0  0  0  0  0  0  0  0  0  0  0  0
   -8.8349    2.7042    3.0895 H   0  0  0  0  0  0  0  0  0  0  0  0
   -7.1252    2.1205    1.4155 H   0  0  0  0  0  0  0  0  0  0  0  0
  1  2  2  0  0  0  0
  1  6  1  0  0  0  0
  1 26  1  0  0  0  0
  2  3  1  0  0  0  0
  2 27  1  0  0  0  0
  3  4  2  0  0  0  0
  3 28  1  0  0  0  0
  4  5  1  0  0  0  0
  4  7  1  0  0  0  0
  5  6  2  0  0  0  0
  5 29  1  0  0  0  0
  6 30  1  0  0  0  0
  7  8  1  0  0  0  0
  7 31  1  0  0  0  0
  8  9  2  0  0  0  0
  8 13  1  0  0  0  0
  9 10  1  0  0  0  0
  9 19  1  0  0  0  0
 10 11  2  0  0  0  0
 10 32  1  0  0  0  0
 11 12  1  0  0  0  0
 11 17  1  0  0  0  0
 12 13  2  0  0  0  0
 12 14  1  0  0  0  0
 13 33  1  0  0  0  0
 14 15  2  0  0  0  0
 14 16  1  0  0  0  0
 16 17  1  0  0  0  0
 16 34  1  0  0  0  0
 17 18  2  0  0  0  0
 19 20  1  0  0  0  0
 19 35  1  0  0  0  0
 20 21  2  0  0  0  0
 20 25  1  0  0  0  0
 21 22  1  0  0  0  0
 21 36  1  0  0  0  0
 22 23  2  0  0  0  0
 22 37  1  0  0  0  0
 23 24  1  0  0  0  0
 23 38  1  0  0  0  0
 24 25  2  0  0  0  0
 24 39  1  0  0  0  0
 25 40  1  0  0  0  0
M  END
$$$$

 OpenBabel05152416193D

 22 23  0  0  0  0  0  0  0  0999 V2000
    0.8783   -0.0790    0.0806 C   0  0  0  0  0  0  0  0  0  0  0  0
    0.4356    1.2325    0.6914 C   0  0  0  0  0  0  0  0  0  0  0  0
    0.8925    2.4175   -0.0562 N   0  0  0  0  0  0  0  0  0  0  0  0
    1.6772    2.5796   -1.1654 C   0  0  0  0  0  0  0  0  0  0  0  0
    2.3661    1.6446   -1.9652 C   0  0  0  0  0  0  0  0  0  0  0  0
    3.0923    2.1036   -3.0731 C   0  0  0  0  0  0  0  0  0  0  0  0
    3.1274    3.4811   -3.3822 C   0  0  0  0  0  0  0  0  0  0  0  0
    2.4416    4.4048   -2.5718 C   0  0  0  0  0  0  0  0  0  0  0  0
    1.7336    3.9196   -1.4719 C   0  0  0  0  0  0  0  0  0  0  0  0
    1.0199    4.6283   -0.5778 N   0  0  0  0  0  0  0  0  0  0  0  0
    0.5251    3.6924    0.2736 C   0  0  0  0  0  0  0  0  0  0  0  0
   -0.1889    3.9670    1.2266 O   0  0  0  0  0  0  0  0  0  0  0  0
    4.0243    4.0584   -4.7786 Cl  0  0  0  0  0  0  0  0  0  0  0  0
    3.9465    0.9224   -4.0609 Cl  0  0  0  0  0  0  0  0  0  0  0  0
    0.4973   -0.1277   -0.9639 H   0  0  0  0  0  0  0  0  0  0  0  0
    0.4608   -0.9393    0.6356 H   0  0  0  0  0  0  0  0  0  0  0  0
    1.9840   -0.1431    0.1407 H   0  0  0  0  0  0  0  0  0  0  0  0
   -0.6769    1.2342    0.7051 H   0  0  0  0  0  0  0  0  0  0  0  0
    0.7941    1.2865    1.7432 H   0  0  0  0  0  0  0  0  0  0  0  0
    2.3876    0.5881   -1.7986 H   0  0  0  0  0  0  0  0  0  0  0  0
    2.4612    5.4613   -2.8001 H   0  0  0  0  0  0  0  0  0  0  0  0
    0.8706    5.6610   -0.5442 H   0  0  0  0  0  0  0  0  0  0  0  0
  1  2  1  0  0  0  0
  1 15  1  0  0  0  0
  1 16  1  0  0  0  0
  1 17  1  0  0  0  0
  2  3  1  0  0  0  0
  2 18  1  0  0  0  0
  2 19  1  0  0  0  0
  3  4  1  0  0  0  0
  3 11  1  0  0  0  0
  4  5  2  0  0  0  0
  4  9  1  0  0  0  0
  5  6  1  0  0  0  0
  5 20  1  0  0  0  0
  6  7  2  0  0  0  0
  6 14  1  0  0  0  0
  7  8  1  0  0  0  0
  7 13  1  0  0  0  0
  8  9  2  0  0  0  0
  8 21  1  0  0  0  0
  9 10  1  0  0  0  0
 10 11  1  0  0  0  0
 10 22  1  0  0  0  0
 11 12  2  0  0  0  0
M  END
$$$$

 OpenBabel05152416193D

 37 40  0  0  0  0  0  0  0  0999 V2000
    2.4208    1.4987   -0.0176 C   0  0  0  0  0  0  0  0  0  0  0  0
    1.5382    0.3346   -0.0025 N   0  0  0  0  0  0  0  0  0  0  0  0
    1.9214   -0.9640    0.0295 C   0  0  0  0  0  0  0  0  0  0  0  0
    0.8007   -1.7928   -0.0175 C   0  0  0  0  0  0  0  0  0  0  0  0
   -0.2933   -0.9485   -0.0544 C   0  0  0  0  0  0  0  0  0  0  0  0
   -1.6615   -1.2164   -0.0646 C   0  0  0  0  0  0  0  0  0  0  0  0
   -2.5455   -0.1218   -0.0445 C   0  0  0  0  0  0  0  0  0  0  0  0
   -2.0503    1.2004   -0.0192 C   0  0  0  0  0  0  0  0  0  0  0  0
   -0.6657    1.4427   -0.0140 C   0  0  0  0  0  0  0  0  0  0  0  0
    0.1904    0.3385   -0.0264 C   0  0  0  0  0  0  0  0  0  0  0  0
    0.8217   -3.2744   -0.0040 C   0  0  0  0  0  0  0  0  0  0  0  0
    1.4523   -4.0511    0.8918 C   0  0  0  0  0  0  0  0  0  0  0  0
    1.2821   -5.4383    0.4330 C   0  0  0  0  0  0  0  0  0  0  0  0
    1.6939   -6.4390    0.9954 O   0  0  0  0  0  0  0  0  0  0  0  0
    0.5560   -5.4607   -0.7026 N   0  0  0  0  0  0  0  0  0  0  0  0
    0.2520   -4.1858   -1.0049 C   0  0  0  0  0  0  0  0  0  0  0  0
   -0.3668   -3.8548   -2.0059 O   0  0  0  0  0  0  0  0  0  0  0  0
    2.1532   -3.5798    2.1069 C   0  0  0  0  0  0  0  0  0  0  0  0
    1.5075   -2.7356    3.0431 C   0  0  0  0  0  0  0  0  0  0  0  0
    2.2085   -2.2600    4.1526 C   0  0  0  0  0  0  0  0  0  0  0  0
    3.5463   -2.6088    4.3422 C   0  0  0  0  0  0  0  0  0  0  0  0
    4.1804   -3.4641    3.4362 C   0  0  0  0  0  0  0  0  0  0  0  0
    3.4837   -3.9598    2.3297 C   0  0  0  0  0  0  0  0  0  0  0  0
    4.4248   -1.9780    5.7220 Cl  0  0  0  0  0  0  0  0  0  0  0  0
   -0.1970   -2.3051    2.9167 Cl  0  0  0  0  0  0  0  0  0  0  0  0
    2.2352    2.0872   -0.9424 H   0  0  0  0  0  0  0  0  0  0  0  0
    2.2269    2.1394    0.8671 H   0  0  0  0  0  0  0  0  0  0  0  0
    3.4862    1.1840   -0.0133 H   0  0  0  0  0  0  0  0  0  0  0  0
    2.9532   -1.2938    0.0570 H   0  0  0  0  0  0  0  0  0  0  0  0
   -2.0348   -2.2317   -0.0666 H   0  0  0  0  0  0  0  0  0  0  0  0
   -3.6136   -0.2932   -0.0401 H   0  0  0  0  0  0  0  0  0  0  0  0
   -2.7409    2.0337    0.0029 H   0  0  0  0  0  0  0  0  0  0  0  0
   -0.2835    2.4552    0.0161 H   0  0  0  0  0  0  0  0  0  0  0  0
    0.2898   -6.3003   -1.2391 H   0  0  0  0  0  0  0  0  0  0  0  0
    1.7088   -1.6171    4.8671 H   0  0  0  0  0  0  0  0  0  0  0  0
    5.2165   -3.7370    3.5839 H   0  0  0  0  0  0  0  0  0  0  0  0
    3.9934   -4.6082    1.6279 H   0  0  0  0  0  0  0  0  0  0  0  0
  1  2  1  0  0  0  0
  1 26  1  0  0  0  0
  1 27  1  0  0  0  0
  1 28  1  0  0  0  0
  2  3  1  0  0  0  0
  2 10  1  0  0  0  0
  3  4  2  0  0  0  0
  3 29  1  0  0  0  0
  4  5  1  0  0  0  0
  4 11  1  0  0  0  0
  5  6  2  0  0  0  0
  5 10  1  0  0  0  0
  6  7  1  0  0  0  0
  6 30  1  0  0  0  0
  7  8  2  0  0  0  0
  7 31  1  0  0  0  0
  8  9  1  0  0  0  0
  8 32  1  0  0  0  0
  9 10  2  0  0  0  0
  9 33  1  0  0  0  0
 11 12  2  0  0  0  0
 11 16  1  0  0  0  0
 12 13  1  0  0  0  0
 12 18  1  0  0  0  0
 13 14  2  0  0  0  0
 13 15  1  0  0  0  0
 15 16  1  0  0  0  0
 15 34  1  0  0  0  0
 16 17  2  0  0  0  0
 18 19  2  0  0  0  0
 18 23  1  0  0  0  0
 19 20  1  0  0  0  0
 19 25  1  0  0  0  0
 20 21  2  0  0  0  0
 20 35  1  0  0  0  0
 21 22  1  0  0  0  0
 21 24  1  0  0  0  0
 22 23  2  0  0  0  0
 22 36  1  0  0  0  0
 23 37  1  0  0  0  0
M  END
$$$$

 OpenBabel05152416193D

 42 46  0  0  1  0  0  0  0  0999 V2000
    1.0596    0.0190    0.2189 C   0  0  0  0  0  0  0  0  0  0  0  0
    0.5854    1.4288   -0.1774 C   0  0  0  0  0  0  0  0  0  0  0  0
    1.0008    1.7934   -1.6234 C   0  0  2  0  0  0  0  0  0  0  0  0
    0.5239    3.2100   -1.9606 C   0  0  0  0  0  0  0  0  0  0  0  0
   -0.6601    3.4176   -2.7665 C   0  0  0  0  0  0  0  0  0  0  0  0
   -1.4291    2.1820   -3.2964 C   0  0  0  0  0  0  0  0  0  0  0  0
   -0.9932    1.0246   -2.7311 O   0  0  0  0  0  0  0  0  0  0  0  0
    0.3044    0.8214   -2.5269 C   0  0  0  0  0  0  0  0  0  0  0  0
    0.7610   -0.2805   -2.7641 O   0  0  0  0  0  0  0  0  0  0  0  0
   -1.0065    4.7481   -3.0802 C   0  0  0  0  0  0  0  0  0  0  0  0
   -1.9959    4.9825   -3.7850 O   0  0  0  0  0  0  0  0  0  0  0  0
   -0.2547    5.7888   -2.6186 N   0  0  0  0  0  0  0  0  0  0  0  0
   -0.4636    7.2241   -2.8325 C   0  0  0  0  0  0  0  0  0  0  0  0
    0.6697    7.8410   -2.0834 C   0  0  0  0  0  0  0  0  0  0  0  0
    0.9837    9.1797   -1.9247 C   0  0  0  0  0  0  0  0  0  0  0  0
    2.1153    9.5027   -1.1611 C   0  0  0  0  0  0  0  0  0  0  0  0
    2.4780   10.8382   -0.9672 C   0  0  0  0  0  0  0  0  0  0  0  0
    3.6050   11.1497   -0.2065 C   0  0  0  0  0  0  0  0  0  0  0  0
    4.3755   10.1305    0.3644 C   0  0  0  0  0  0  0  0  0  0  0  0
    4.0250    8.7874    0.1797 C   0  0  0  0  0  0  0  0  0  0  0  0
    2.8966    8.4578   -0.5810 C   0  0  0  0  0  0  0  0  0  0  0  0
    2.5446    7.1485   -0.7654 N   0  0  0  0  0  0  0  0  0  0  0  0
    1.4407    6.8641   -1.5100 C   0  0  0  0  0  0  0  0  0  0  0  0
    0.8549    5.5890   -1.8442 C   0  0  0  0  0  0  0  0  0  0  0  0
    1.2650    4.3141   -1.4959 C   0  0  0  0  0  0  0  0  0  0  0  0
    2.4028    1.6695   -1.7512 O   0  0  0  0  0  0  0  0  0  0  0  0
    0.6513   -0.7672   -0.4484 H   0  0  0  0  0  0  0  0  0  0  0  0
    0.7124   -0.2314    1.2381 H   0  0  0  0  0  0  0  0  0  0  0  0
    2.1677   -0.0309    0.1779 H   0  0  0  0  0  0  0  0  0  0  0  0
   -0.5268    1.4650   -0.0943 H   0  0  0  0  0  0  0  0  0  0  0  0
    1.0006    2.1609    0.5454 H   0  0  0  0  0  0  0  0  0  0  0  0
   -1.1218    2.2528   -4.3470 H   0  0  0  0  0  0  0  0  0  0  0  0
   -2.4195    1.8853   -3.7086 H   0  0  0  0  0  0  0  0  0  0  0  0
   -0.4049    7.4837   -3.9125 H   0  0  0  0  0  0  0  0  0  0  0  0
   -1.4352    7.5474   -2.4007 H   0  0  0  0  0  0  0  0  0  0  0  0
    0.3669    9.9448   -2.3791 H   0  0  0  0  0  0  0  0  0  0  0  0
    1.8886   11.6356   -1.4044 H   0  0  0  0  0  0  0  0  0  0  0  0
    3.8787   12.1859   -0.0615 H   0  0  0  0  0  0  0  0  0  0  0  0
    5.2470   10.3846    0.9521 H   0  0  0  0  0  0  0  0  0  0  0  0
    4.6299    8.0085    0.6274 H   0  0  0  0  0  0  0  0  0  0  0  0
    2.1582    4.1755   -0.8908 H   0  0  0  0  0  0  0  0  0  0  0  0
    2.6788    2.0589   -2.6205 H   0  0  0  0  0  0  0  0  0  0  0  0
  1  2  1  0  0  0  0
  1 27  1  0  0  0  0
  1 28  1  0  0  0  0
  1 29  1  0  0  0  0
  2  3  1  0  0  0  0
  2 30  1  0  0  0  0
  2 31  1  0  0  0  0
  3  4  1  0  0  0  0
  3  8  1  0  0  0  0
  3 26  1  6  0  0  0
  4  5  2  0  0  0  0
  4 25  1  0  0  0  0
  5  6  1  0  0  0  0
  5 10  1  0  0  0  0
  6  7  1  0  0  0  0
  6 32  1  0  0  0  0
  6 33  1  0  0  0  0
  7  8  1  0  0  0  0
  8  9  2  0  0  0  0
 10 11  2  0  0  0  0
 10 12  1  0  0  0  0
 12 13  1  0  0  0  0
 12 24  1  0  0  0  0
 13 14  1  0  0  0  0
 13 34  1  0  0  0  0
 13 35  1  0  0  0  0
 14 15  2  0  0  0  0
 14 23  1  0  0  0  0
 15 16  1  0  0  0  0
 15 36  1  0  0  0  0
 16 17  2  0  0  0  0
 16 21  1  0  0  0  0
 17 18  1  0  0  0  0
 17 37  1  0  0  0  0
 18 19  2  0  0  0  0
 18 38  1  0  0  0  0
 19 20  1  0  0  0  0
 19 39  1  0  0  0  0
 20 21  2  0  0  0  0
 20 40  1  0  0  0  0
 21 22  1  0  0  0  0
 22 23  2  0  0  0  0
 23 24  1  0  0  0  0
 24 25  2  0  0  0  0
 25 41  1  0  0  0  0
 26 42  1  0  0  0  0
M  END
$$$$

 OpenBabel05152416193D

 47 50  0  0  0  0  0  0  0  0999 V2000
    2.5932    0.0880   -0.0334 C   0  0  0  0  0  0  0  0  0  0  0  0
    1.1172    0.1610    0.0029 C   0  0  0  0  0  0  0  0  0  0  0  0
    0.4516   -1.0240    0.1552 C   0  0  0  0  0  0  0  0  0  0  0  0
   -0.9018   -1.0084    0.2760 C   0  0  0  0  0  0  0  0  0  0  0  0
   -1.6986    0.1403    0.1216 C   0  0  0  0  0  0  0  0  0  0  0  0
   -1.0105    1.3561   -0.0331 C   0  0  0  0  0  0  0  0  0  0  0  0
    0.3936    1.3646   -0.0580 C   0  0  0  0  0  0  0  0  0  0  0  0
   -3.2232   -0.0250    0.2024 C   0  0  0  0  0  0  0  0  0  0  0  0
   -4.1260    1.2199    0.2066 C   0  0  0  0  0  0  0  0  0  0  0  0
   -3.9993    0.4091   -1.0755 C   0  0  0  0  0  0  0  0  0  0  0  0
   -3.6068   -1.4514    0.6190 C   0  0  0  0  0  0  0  0  0  0  0  0
   -3.8806   -1.7869    1.8911 N   0  0  0  0  0  0  0  0  0  0  0  0
   -3.7939   -3.1160    1.9340 N   0  0  0  0  0  0  0  0  0  0  0  0
   -3.4663   -3.5904    0.7469 N   0  0  0  0  0  0  0  0  0  0  0  0
   -3.3334   -2.5758   -0.1076 N   0  0  0  0  0  0  0  0  0  0  0  0
   -2.7684   -2.6739   -1.4767 C   0  0  0  0  0  0  0  0  0  0  0  0
   -1.3952   -3.4547   -1.5895 C   0  0  0  0  0  0  0  0  0  0  0  0
   -1.4858   -4.9375   -1.5078 C   0  0  0  0  0  0  0  0  0  0  0  0
   -0.3127   -5.7215   -1.5594 C   0  0  0  0  0  0  0  0  0  0  0  0
   -0.4097   -7.1188   -1.5264 C   0  0  0  0  0  0  0  0  0  0  0  0
   -1.6761   -7.7255   -1.4488 C   0  0  0  0  0  0  0  0  0  0  0  0
   -2.8190   -6.9177   -1.3733 C   0  0  0  0  0  0  0  0  0  0  0  0
   -2.7235   -5.5609   -1.3967 C   0  0  0  0  0  0  0  0  0  0  0  0
   -1.7959   -9.0741   -1.4556 O   0  0  0  0  0  0  0  0  0  0  0  0
   -3.0254   -9.7073   -1.4243 C   0  0  0  0  0  0  0  0  0  0  0  0
    2.9342   -0.4573    0.8758 H   0  0  0  0  0  0  0  0  0  0  0  0
    2.9031   -0.4856   -0.9339 H   0  0  0  0  0  0  0  0  0  0  0  0
    3.0209    1.1032   -0.0466 H   0  0  0  0  0  0  0  0  0  0  0  0
    0.9756   -1.9734    0.2237 H   0  0  0  0  0  0  0  0  0  0  0  0
   -1.2875   -1.9510    0.5194 H   0  0  0  0  0  0  0  0  0  0  0  0
   -1.5164    2.3009   -0.1000 H   0  0  0  0  0  0  0  0  0  0  0  0
    0.9112    2.3043   -0.1273 H   0  0  0  0  0  0  0  0  0  0  0  0
   -5.0629    1.1256    0.7888 H   0  0  0  0  0  0  0  0  0  0  0  0
   -3.5758    2.1814    0.2094 H   0  0  0  0  0  0  0  0  0  0  0  0
   -3.5316    1.0867   -1.8287 H   0  0  0  0  0  0  0  0  0  0  0  0
   -5.0474    0.0847   -1.2838 H   0  0  0  0  0  0  0  0  0  0  0  0
   -3.5065   -3.1018   -2.1837 H   0  0  0  0  0  0  0  0  0  0  0  0
   -2.5959   -1.6525   -1.8502 H   0  0  0  0  0  0  0  0  0  0  0  0
   -0.6211   -3.2151   -0.8571 H   0  0  0  0  0  0  0  0  0  0  0  0
   -0.9316   -3.1979   -2.5640 H   0  0  0  0  0  0  0  0  0  0  0  0
    0.6674   -5.2532   -1.6271 H   0  0  0  0  0  0  0  0  0  0  0  0
    0.4928   -7.7180   -1.5733 H   0  0  0  0  0  0  0  0  0  0  0  0
   -3.8174   -7.3140   -1.3052 H   0  0  0  0  0  0  0  0  0  0  0  0
   -3.6534   -5.0291   -1.3401 H   0  0  0  0  0  0  0  0  0  0  0  0
   -3.5644   -9.4321   -0.4891 H   0  0  0  0  0  0  0  0  0  0  0  0
   -3.6376   -9.3884   -2.3009 H   0  0  0  0  0  0  0  0  0  0  0  0
   -2.8941  -10.8004   -1.4585 H   0  0  0  0  0  0  0  0  0  0  0  0
  1  2  1  0  0  0  0
  1 26  1  0  0  0  0
  1 27  1  0  0  0  0
  1 28  1  0  0  0  0
  2  3  2  0  0  0  0
  2  7  1  0  0  0  0
  3  4  1  0  0  0  0
  3 29  1  0  0  0  0
  4  5  2  0  0  0  0
  4 30  1  0  0  0  0
  5  6  1  0  0  0  0
  5  8  1  0  0  0  0
  6  7  2  0  0  0  0
  6 31  1  0  0  0  0
  7 32  1  0  0  0  0
  8  9  1  0  0  0  0
  8 10  1  0  0  0  0
  8 11  1  0  0  0  0
  9 10  1  0  0  0  0
  9 33  1  0  0  0  0
  9 34  1  0  0  0  0
 10 35  1  0  0  0  0
 10 36  1  0  0  0  0
 11 12  2  0  0  0  0
 11 15  1  0  0  0  0
 12 13  1  0  0  0  0
 13 14  2  0  0  0  0
 14 15  1  0  0  0  0
 15 16  1  0  0  0  0
 16 17  1  0  0  0  0
 16 37  1  0  0  0  0
 16 38  1  0  0  0  0
 17 18  1  0  0  0  0
 17 39  1  0  0  0  0
 17 40  1  0  0  0  0
 18 19  2  0  0  0  0
 18 23  1  0  0  0  0
 19 20  1  0  0  0  0
 19 41  1  0  0  0  0
 20 21  2  0  0  0  0
 20 42  1  0  0  0  0
 21 22  1  0  0  0  0
 21 24  1  0  0  0  0
 22 23  2  0  0  0  0
 22 43  1  0  0  0  0
 23 44  1  0  0  0  0
 24 25  1  0  0  0  0
 25 45  1  0  0  0  0
 25 46  1  0  0  0  0
 25 47  1  0  0  0  0
M  END
$$$$

 OpenBabel05152416193D

 49 52  0  0  0  0  0  0  0  0999 V2000
    1.4701   -0.2033    0.0151 C   0  0  0  0  0  0  0  0  0  0  0  0
    0.9783    1.0962   -0.0151 C   0  0  0  0  0  0  0  0  0  0  0  0
   -0.3960    1.3425   -0.1114 C   0  0  0  0  0  0  0  0  0  0  0  0
   -1.3439    0.2950   -0.1677 C   0  0  0  0  0  0  0  0  0  0  0  0
   -0.7728   -1.0205   -0.2494 C   0  0  0  0  0  0  0  0  0  0  0  0
    0.5924   -1.2632   -0.1155 C   0  0  0  0  0  0  0  0  0  0  0  0
   -2.9156    0.5430   -0.2355 C   0  0  0  0  0  0  0  0  0  0  0  0
   -3.6404    1.4462    0.8286 C   0  0  0  0  0  0  0  0  0  0  0  0
   -4.9482    1.1307    1.3250 C   0  0  0  0  0  0  0  0  0  0  0  0
   -5.5637    1.9221    2.2945 C   0  0  0  0  0  0  0  0  0  0  0  0
   -4.9353    3.0745    2.7571 C   0  0  0  0  0  0  0  0  0  0  0  0
   -3.6995    3.4436    2.2442 C   0  0  0  0  0  0  0  0  0  0  0  0
   -3.0635    2.6465    1.3077 C   0  0  0  0  0  0  0  0  0  0  0  0
   -3.1709    1.3200   -1.5684 C   0  0  0  0  0  0  0  0  0  0  0  0
   -3.7765    2.6281   -1.6030 C   0  0  0  0  0  0  0  0  0  0  0  0
   -3.9568    3.3369   -2.7670 C   0  0  0  0  0  0  0  0  0  0  0  0
   -3.5535    2.7887   -3.9658 C   0  0  0  0  0  0  0  0  0  0  0  0
   -2.9529    1.5234   -3.9891 C   0  0  0  0  0  0  0  0  0  0  0  0
   -2.7581    0.7928   -2.8025 C   0  0  0  0  0  0  0  0  0  0  0  0
   -3.5486   -0.8254   -0.1554 N   0  0  0  0  0  0  0  0  0  0  0  0
   -3.3507   -1.6992    1.0990 C   0  0  0  0  0  0  0  0  0  0  0  0
   -3.5500   -1.0623    2.4743 C   0  0  0  0  0  0  0  0  0  0  0  0
   -2.7632    0.0265    2.8882 C   0  0  0  0  0  0  0  0  0  0  0  0
   -3.1386    0.7679    3.9731 N   0  0  0  0  0  0  0  0  0  0  0  0
   -4.1725    0.4051    4.7450 C   0  0  0  0  0  0  0  0  0  0  0  0
   -4.8195   -0.8136    4.5222 C   0  0  0  0  0  0  0  0  0  0  0  0
   -4.5060   -1.5486    3.3669 C   0  0  0  0  0  0  0  0  0  0  0  0
    2.5321   -0.3905    0.0999 H   0  0  0  0  0  0  0  0  0  0  0  0
    1.6655    1.9272    0.0339 H   0  0  0  0  0  0  0  0  0  0  0  0
   -0.6669    2.3679   -0.1617 H   0  0  0  0  0  0  0  0  0  0  0  0
   -1.3435   -1.9120   -0.4376 H   0  0  0  0  0  0  0  0  0  0  0  0
    0.9670   -2.2821   -0.1287 H   0  0  0  0  0  0  0  0  0  0  0  0
   -5.5026    0.2532    1.0229 H   0  0  0  0  0  0  0  0  0  0  0  0
   -6.5228    1.6254    2.6995 H   0  0  0  0  0  0  0  0  0  0  0  0
   -5.4007    3.6850    3.5139 H   0  0  0  0  0  0  0  0  0  0  0  0
   -3.2080    4.3470    2.5733 H   0  0  0  0  0  0  0  0  0  0  0  0
   -2.1339    3.0121    0.9719 H   0  0  0  0  0  0  0  0  0  0  0  0
   -4.1337    3.1800   -0.7540 H   0  0  0  0  0  0  0  0  0  0  0  0
   -4.4149    4.3201   -2.7143 H   0  0  0  0  0  0  0  0  0  0  0  0
   -3.7119    3.3603   -4.8671 H   0  0  0  0  0  0  0  0  0  0  0  0
   -2.6345    1.1135   -4.9332 H   0  0  0  0  0  0  0  0  0  0  0  0
   -2.2794   -0.1763   -2.8442 H   0  0  0  0  0  0  0  0  0  0  0  0
   -4.5381   -0.8196   -0.4969 H   0  0  0  0  0  0  0  0  0  0  0  0
   -3.9945   -2.5980    0.9773 H   0  0  0  0  0  0  0  0  0  0  0  0
   -2.3519   -2.1083    1.2335 H   0  0  0  0  0  0  0  0  0  0  0  0
   -1.9537    0.3930    2.2922 H   0  0  0  0  0  0  0  0  0  0  0  0
   -4.4863    1.0590    5.5526 H   0  0  0  0  0  0  0  0  0  0  0  0
   -5.5807   -1.1533    5.2006 H   0  0  0  0  0  0  0  0  0  0  0  0
   -5.0322   -2.4709    3.1609 H   0  0  0  0  0  0  0  0  0  0  0  0
  1  2  2  0  0  0  0
  1  6  1  0  0  0  0
  1 28  1  0  0  0  0
  2  3  1  0  0  0  0
  2 29  1  0  0  0  0
  3  4  2  0  0  0  0
  3 30  1  0  0  0  0
  4  5  1  0  0  0  0
  4  7  1  0  0  0  0
  5  6  2  0  0  0  0
  5 31  1  0  0  0  0
  6 32  1  0  0  0  0
  7  8  1  0  0  0  0
  7 14  1  0  0  0  0
  7 20  1  0  0  0  0
  8  9  2  0  0  0  0
  8 13  1  0  0  0  0
  9 10  1  0  0  0  0
  9 33  1  0  0  0  0
 10 11  2  0  0  0  0
 10 34  1  0  0  0  0
 11 12  1  0  0  0  0
 11 35  1  0  0  0  0
 12 13  2  0  0  0  0
 12 36  1  0  0  0  0
 13 37  1  0  0  0  0
 14 15  2  0  0  0  0
 14 19  1  0  0  0  0
 15 16  1  0  0  0  0
 15 38  1  0  0  0  0
 16 17  2  0  0  0  0
 16 39  1  0  0  0  0
 17 18  1  0  0  0  0
 17 40  1  0  0  0  0
 18 19  2  0  0  0  0
 18 41  1  0  0  0  0
 19 42  1  0  0  0  0
 20 21  1  0  0  0  0
 20 43  1  0  0  0  0
 21 22  1  0  0  0  0
 21 44  1  0  0  0  0
 21 45  1  0  0  0  0
 22 23  2  0  0  0  0
 22 27  1  0  0  0  0
 23 24  1  0  0  0  0
 23 46  1  0  0  0  0
 24 25  2  0  0  0  0
 25 26  1  0  0  0  0
 25 47  1  0  0  0  0
 26 27  2  0  0  0  0
 26 48  1  0  0  0  0
 27 49  1  0  0  0  0
M  END
$$$$

 OpenBabel05152416193D

 37 36  0  0  0  0  0  0  0  0999 V2000
    1.2119    0.3565    0.8293 C   0  0  0  0  0  0  0  0  0  0  0  0
    0.5053    0.1046    2.0621 N   0  0  0  0  0  0  0  0  0  0  0  0
   -0.9290   -0.0480    1.8108 C   0  0  0  0  0  0  0  0  0  0  0  0
   -1.3639   -1.2411    0.9393 C   0  0  0  0  0  0  0  0  0  0  0  0
   -0.8768   -2.5446    1.3803 N   0  0  0  0  0  0  0  0  0  0  0  0
   -1.5381   -3.8331    0.3429 S   0  0  0  0  0  0  0  0  0  0  0  0
   -0.8391   -3.7038   -1.0195 O   0  0  0  0  0  0  0  0  0  0  0  0
   -0.8407   -5.0659    0.9414 O   0  0  0  0  0  0  0  0  0  0  0  0
   -3.3585   -3.9599    0.2473 C   0  0  0  0  0  0  0  0  0  0  0  0
   -4.1184   -2.7814    0.1265 C   0  0  0  0  0  0  0  0  0  0  0  0
   -5.4946   -2.7712    0.2028 C   0  0  0  0  0  0  0  0  0  0  0  0
   -6.1781   -3.9633    0.3117 C   0  0  0  0  0  0  0  0  0  0  0  0
   -5.4791   -5.1704    0.3174 C   0  0  0  0  0  0  0  0  0  0  0  0
   -4.0506   -5.1926    0.2954 C   0  0  0  0  0  0  0  0  0  0  0  0
   -3.4053   -6.4355    0.2904 C   0  0  0  0  0  0  0  0  0  0  0  0
   -4.1405   -7.6101    0.3049 C   0  0  0  0  0  0  0  0  0  0  0  0
   -5.5058   -7.5573    0.3257 N   0  0  0  0  0  0  0  0  0  0  0  0
   -6.1688   -6.3853    0.3354 C   0  0  0  0  0  0  0  0  0  0  0  0
    3.2234    0.6422   -2.3693 Cl  0  0  0  0  0  0  0  0  0  0  0  0
    0.2404   -0.4866   -2.1919 Cl  0  0  0  0  0  0  0  0  0  0  0  0
    0.8356    1.2767    0.3220 H   0  0  0  0  0  0  0  0  0  0  0  0
    1.0670   -0.5388    0.2402 H   0  0  0  0  0  0  0  0  0  0  0  0
    2.2979    0.4426    1.0077 H   0  0  0  0  0  0  0  0  0  0  0  0
    0.8797   -0.7761    2.4833 H   0  0  0  0  0  0  0  0  0  0  0  0
   -1.4197   -0.1628    2.7970 H   0  0  0  0  0  0  0  0  0  0  0  0
   -1.3355    0.8729    1.3297 H   0  0  0  0  0  0  0  0  0  0  0  0
   -2.4122   -1.1668    1.1692 H   0  0  0  0  0  0  0  0  0  0  0  0
   -1.2288   -1.1443   -0.1584 H   0  0  0  0  0  0  0  0  0  0  0  0
    0.1562   -2.5914    1.2449 H   0  0  0  0  0  0  0  0  0  0  0  0
   -3.7151   -1.8229   -0.0436 H   0  0  0  0  0  0  0  0  0  0  0  0
   -6.0155   -1.8225    0.1657 H   0  0  0  0  0  0  0  0  0  0  0  0
   -7.2594   -3.9247    0.3529 H   0  0  0  0  0  0  0  0  0  0  0  0
   -2.3391   -6.5540    0.2417 H   0  0  0  0  0  0  0  0  0  0  0  0
   -3.6316   -8.5586    0.2863 H   0  0  0  0  0  0  0  0  0  0  0  0
   -7.2541   -6.3808    0.3357 H   0  0  0  0  0  0  0  0  0  0  0  0
    3.3745    0.3503   -1.0348 H   0  0  0  0  0  0  0  0  0  0  0  0
    1.3192   -1.1783   -1.6599 H   0  0  0  0  0  0  0  0  0  0  0  0
  1  2  1  0  0  0  0
  1 21  1  0  0  0  0
  1 22  1  0  0  0  0
  1 23  1  0  0  0  0
  2  3  1  0  0  0  0
  2 24  1  0  0  0  0
  3  4  1  0  0  0  0
  3 25  1  0  0  0  0
  3 26  1  0  0  0  0
  4  5  1  0  0  0  0
  4 27  1  0  0  0  0
  4 28  1  0  0  0  0
  5  6  1  0  0  0  0
  5 29  1  0  0  0  0
  6  7  2  0  0  0  0
  6  8  2  0  0  0  0
  6  9  1  0  0  0  0
  9 10  2  0  0  0  0
  9 14  1  0  0  0  0
 10 11  1  0  0  0  0
 10 30  1  0  0  0  0
 11 12  2  0  0  0  0
 11 31  1  0  0  0  0
 12 13  1  0  0  0  0
 12 32  1  0  0  0  0
 13 14  2  0  0  0  0
 13 18  1  0  0  0  0
 14 15  1  0  0  0  0
 15 16  2  0  0  0  0
 15 33  1  0  0  0  0
 16 17  1  0  0  0  0
 16 34  1  0  0  0  0
 17 18  2  0  0  0  0
 18 35  1  0  0  0  0
 19 36  1  0  0  0  0
 20 37  1  0  0  0  0
M  END
$$$$

 OpenBabel05152416193D

 45 48  0  0  0  0  0  0  0  0999 V2000
    0.6806   -1.2689    0.2200 C   0  0  0  0  0  0  0  0  0  0  0  0
   -0.7793   -1.2007   -0.2403 C   0  0  0  0  0  0  0  0  0  0  0  0
   -1.3793    0.0472    0.2311 N   0  0  0  0  0  0  0  0  0  0  0  0
   -0.6761    1.2555   -0.2125 C   0  0  0  0  0  0  0  0  0  0  0  0
    0.7929    1.1973    0.2588 C   0  0  0  0  0  0  0  0  0  0  0  0
    1.3882   -0.0601   -0.1851 N   0  0  0  0  0  0  0  0  0  0  0  0
    2.6018   -0.1126   -0.9725 C   0  0  0  0  0  0  0  0  0  0  0  0
    3.8284    0.4453   -0.5114 C   0  0  0  0  0  0  0  0  0  0  0  0
    3.9411    1.0567    0.7515 C   0  0  0  0  0  0  0  0  0  0  0  0
    5.1624    1.5648    1.1912 C   0  0  0  0  0  0  0  0  0  0  0  0
    6.2816    1.4626    0.3750 C   0  0  0  0  0  0  0  0  0  0  0  0
    6.1774    0.8727   -0.8388 N   0  0  0  0  0  0  0  0  0  0  0  0
    5.0078    0.3599   -1.3122 C   0  0  0  0  0  0  0  0  0  0  0  0
    4.9758   -0.2614   -2.5829 C   0  0  0  0  0  0  0  0  0  0  0  0
    3.7581   -0.8093   -3.0206 C   0  0  0  0  0  0  0  0  0  0  0  0
    2.6002   -0.7506   -2.2276 C   0  0  0  0  0  0  0  0  0  0  0  0
    6.1470   -0.3488   -3.4179 N   0  3  0  0  0  0  0  0  0  0  0  0
    7.1945    0.0985   -3.0670 O   0  0  0  0  0  0  0  0  0  0  0  0
    6.0754   -0.9222   -4.6026 O   0  5  0  0  0  0  0  0  0  0  0  0
   -2.5599    0.0997    0.9555 C   0  0  0  0  0  0  0  0  0  0  0  0
   -3.0794    1.1821    1.1919 O   0  0  0  0  0  0  0  0  0  0  0  0
   -3.3077   -1.1264    1.3771 C   0  0  0  0  0  0  0  0  0  0  0  0
   -2.7013   -2.1205    2.1676 C   0  0  0  0  0  0  0  0  0  0  0  0
   -3.3968   -3.2900    2.4984 C   0  0  0  0  0  0  0  0  0  0  0  0
   -4.7016   -3.4861    2.0383 C   0  0  0  0  0  0  0  0  0  0  0  0
   -5.3270   -2.4933    1.2787 C   0  0  0  0  0  0  0  0  0  0  0  0
   -4.6419   -1.3114    0.9636 C   0  0  0  0  0  0  0  0  0  0  0  0
   -5.5470   -4.9808    2.4057 Cl  0  0  0  0  0  0  0  0  0  0  0  0
    0.6812   -1.3131    1.3326 H   0  0  0  0  0  0  0  0  0  0  0  0
    1.1729   -2.1853   -0.1647 H   0  0  0  0  0  0  0  0  0  0  0  0
   -1.3214   -2.1042    0.0865 H   0  0  0  0  0  0  0  0  0  0  0  0
   -0.8003   -1.2045   -1.3507 H   0  0  0  0  0  0  0  0  0  0  0  0
   -0.6845    1.2786   -1.3255 H   0  0  0  0  0  0  0  0  0  0  0  0
   -1.1552    2.1910    0.1466 H   0  0  0  0  0  0  0  0  0  0  0  0
    0.7941    1.2310    1.3691 H   0  0  0  0  0  0  0  0  0  0  0  0
    1.3552    2.0719   -0.1344 H   0  0  0  0  0  0  0  0  0  0  0  0
    3.1009    1.1373    1.4183 H   0  0  0  0  0  0  0  0  0  0  0  0
    5.2414    2.0303    2.1635 H   0  0  0  0  0  0  0  0  0  0  0  0
    7.2382    1.8453    0.7046 H   0  0  0  0  0  0  0  0  0  0  0  0
    3.7028   -1.2912   -3.9895 H   0  0  0  0  0  0  0  0  0  0  0  0
    1.6879   -1.1860   -2.6129 H   0  0  0  0  0  0  0  0  0  0  0  0
   -1.6896   -1.9890    2.5280 H   0  0  0  0  0  0  0  0  0  0  0  0
   -2.9161   -4.0512    3.0999 H   0  0  0  0  0  0  0  0  0  0  0  0
   -6.3384   -2.6454    0.9203 H   0  0  0  0  0  0  0  0  0  0  0  0
   -5.1393   -0.5638    0.3583 H   0  0  0  0  0  0  0  0  0  0  0  0
  1  2  1  0  0  0  0
  1  6  1  0  0  0  0
  1 29  1  0  0  0  0
  1 30  1  0  0  0  0
  2  3  1  0  0  0  0
  2 31  1  0  0  0  0
  2 32  1  0  0  0  0
  3  4  1  0  0  0  0
  3 20  1  0  0  0  0
  4  5  1  0  0  0  0
  4 33  1  0  0  0  0
  4 34  1  0  0  0  0
  5  6  1  0  0  0  0
  5 35  1  0  0  0  0
  5 36  1  0  0  0  0
  6  7  1  0  0  0  0
  7  8  2  0  0  0  0
  7 16  1  0  0  0  0
  8  9  1  0  0  0  0
  8 13  1  0  0  0  0
  9 10  2  0  0  0  0
  9 37  1  0  0  0  0
 10 11  1  0  0  0  0
 10 38  1  0  0  0  0
 11 12  2  0  0  0  0
 11 39  1  0  0  0  0
 12 13  1  0  0  0  0
 13 14  2  0  0  0  0
 14 15  1  0  0  0  0
 14 17  1  0  0  0  0
 15 16  2  0  0  0  0
 15 40  1  0  0  0  0
 16 41  1  0  0  0  0
 17 18  2  0  0  0  0
 17 19  1  0  0  0  0
 20 21  2  0  0  0  0
 20 22  1  0  0  0  0
 22 23  2  0  0  0  0
 22 27  1  0  0  0  0
 23 24  1  0  0  0  0
 23 42  1  0  0  0  0
 24 25  2  0  0  0  0
 24 43  1  0  0  0  0
 25 26  1  0  0  0  0
 25 28  1  0  0  0  0
 26 27  2  0  0  0  0
 26 44  1  0  0  0  0
 27 45  1  0  0  0  0
M  CHG  2  17   1  19  -1
M  END
$$$$

 OpenBabel05152416193D

 25 26  0  0  0  0  0  0  0  0999 V2000
    1.0578   -0.0628    0.0100 C   0  0  0  0  0  0  0  0  0  0  0  0
    0.3598    0.5789   -0.9302 C   0  0  0  0  0  0  0  0  0  0  0  0
   -1.1458    0.5881   -0.9314 C   0  0  0  0  0  0  0  0  0  0  0  0
   -1.5849    1.9602   -0.8810 N   0  0  0  0  0  0  0  0  0  0  0  0
   -2.4322    2.5210   -1.8791 C   0  0  0  0  0  0  0  0  0  0  0  0
   -3.4030    1.7573   -2.4451 N   0  0  0  0  0  0  0  0  0  0  0  0
   -4.2855    2.2753   -3.3409 C   0  0  0  0  0  0  0  0  0  0  0  0
   -4.2006    3.5818   -3.7012 N   0  0  0  0  0  0  0  0  0  0  0  0
   -3.2464    4.3900   -3.1774 C   0  0  0  0  0  0  0  0  0  0  0  0
   -2.3199    3.8766   -2.2415 C   0  0  0  0  0  0  0  0  0  0  0  0
   -1.3227    4.7193   -1.7232 C   0  0  0  0  0  0  0  0  0  0  0  0
   -1.2943    6.0694   -2.0690 C   0  0  0  0  0  0  0  0  0  0  0  0
   -2.2399    6.5843   -2.9599 C   0  0  0  0  0  0  0  0  0  0  0  0
   -3.1942    5.7420   -3.5373 C   0  0  0  0  0  0  0  0  0  0  0  0
    0.0356    7.2052   -1.3047 Br  0  0  0  0  0  0  0  0  0  0  0  0
    0.5557   -0.6100    0.8012 H   0  0  0  0  0  0  0  0  0  0  0  0
    2.1427   -0.0469   -0.0095 H   0  0  0  0  0  0  0  0  0  0  0  0
    0.8937    1.1189   -1.7092 H   0  0  0  0  0  0  0  0  0  0  0  0
   -1.4996    0.1005   -1.8634 H   0  0  0  0  0  0  0  0  0  0  0  0
   -1.5508    0.0342   -0.0588 H   0  0  0  0  0  0  0  0  0  0  0  0
   -1.2257    2.5505   -0.1175 H   0  0  0  0  0  0  0  0  0  0  0  0
   -5.0746    1.6557   -3.7421 H   0  0  0  0  0  0  0  0  0  0  0  0
   -0.5636    4.3522   -1.0476 H   0  0  0  0  0  0  0  0  0  0  0  0
   -2.2310    7.6369   -3.2061 H   0  0  0  0  0  0  0  0  0  0  0  0
   -3.9051    6.1449   -4.2482 H   0  0  0  0  0  0  0  0  0  0  0  0
  1  2  2  0  0  0  0
  1 16  1  0  0  0  0
  1 17  1  0  0  0  0
  2  3  1  0  0  0  0
  2 18  1  0  0  0  0
  3  4  1  0  0  0  0
  3 19  1  0  0  0  0
  3 20  1  0  0  0  0
  4  5  1  0  0  0  0
  4 21  1  0  0  0  0
  5  6  2  0  0  0  0
  5 10  1  0  0  0  0
  6  7  1  0  0  0  0
  7  8  2  0  0  0  0
  7 22  1  0  0  0  0
  8  9  1  0  0  0  0
  9 10  2  0  0  0  0
  9 14  1  0  0  0  0
 10 11  1  0  0  0  0
 11 12  2  0  0  0  0
 11 23  1  0  0  0  0
 12 13  1  0  0  0  0
 12 15  1  0  0  0  0
 13 14  2  0  0  0  0
 13 24  1  0  0  0  0
 14 25  1  0  0  0  0
M  END
$$$$

 OpenBabel05152416193D

 39 42  0  0  0  0  0  0  0  0999 V2000
   -1.2699   -1.1783    0.0363 C   0  0  0  0  0  0  0  0  0  0  0  0
    0.1333   -1.2158    0.0372 C   0  0  0  0  0  0  0  0  0  0  0  0
    0.8714   -0.0233    0.0105 C   0  0  0  0  0  0  0  0  0  0  0  0
    0.1983    1.2021   -0.0236 C   0  0  0  0  0  0  0  0  0  0  0  0
   -1.2023    1.2410   -0.0613 C   0  0  0  0  0  0  0  0  0  0  0  0
   -1.9492    0.0526   -0.0292 C   0  0  0  0  0  0  0  0  0  0  0  0
   -3.4324    0.0949   -0.0668 C   0  0  0  0  0  0  0  0  0  0  0  0
   -4.2193   -0.4144    0.9045 N   0  0  0  0  0  0  0  0  0  0  0  0
   -5.4810   -0.1633    0.4879 C   0  0  0  0  0  0  0  0  0  0  0  0
   -5.4425    0.4733   -0.7368 C   0  0  0  0  0  0  0  0  0  0  0  0
   -4.1479    0.6497   -1.0763 N   0  0  0  0  0  0  0  0  0  0  0  0
   -6.6090    0.9464   -1.5254 C   0  0  0  0  0  0  0  0  0  0  0  0
   -7.5703    1.7883   -0.9358 C   0  0  0  0  0  0  0  0  0  0  0  0
   -8.6605    2.2321   -1.6923 C   0  0  0  0  0  0  0  0  0  0  0  0
   -8.8098    1.8199   -2.9778 N   0  0  0  0  0  0  0  0  0  0  0  0
   -7.9090    0.9905   -3.5681 C   0  0  0  0  0  0  0  0  0  0  0  0
   -6.7823    0.5542   -2.8596 C   0  0  0  0  0  0  0  0  0  0  0  0
   -6.6926   -0.5726    1.2179 C   0  0  0  0  0  0  0  0  0  0  0  0
   -6.8921   -0.1526    2.5390 C   0  0  0  0  0  0  0  0  0  0  0  0
   -8.0615   -0.5079    3.2196 C   0  0  0  0  0  0  0  0  0  0  0  0
   -9.0201   -1.3135    2.5968 C   0  0  0  0  0  0  0  0  0  0  0  0
   -8.8168   -1.7546    1.2862 C   0  0  0  0  0  0  0  0  0  0  0  0
   -7.6646   -1.3732    0.5909 C   0  0  0  0  0  0  0  0  0  0  0  0
  -10.1473   -1.6650    3.2634 F   0  0  0  0  0  0  0  0  0  0  0  0
    2.2217   -0.0393    0.0121 O   0  0  0  0  0  0  0  0  0  0  0  0
   -1.8214   -2.1097    0.0491 H   0  0  0  0  0  0  0  0  0  0  0  0
    0.6468   -2.1702    0.0557 H   0  0  0  0  0  0  0  0  0  0  0  0
    0.7641    2.1256   -0.0278 H   0  0  0  0  0  0  0  0  0  0  0  0
   -1.7022    2.2004   -0.0880 H   0  0  0  0  0  0  0  0  0  0  0  0
   -3.7766    1.1179   -1.9296 H   0  0  0  0  0  0  0  0  0  0  0  0
   -7.4635    2.1252    0.0877 H   0  0  0  0  0  0  0  0  0  0  0  0
   -9.3899    2.9052   -1.2584 H   0  0  0  0  0  0  0  0  0  0  0  0
   -8.0719    0.6667   -4.5875 H   0  0  0  0  0  0  0  0  0  0  0  0
   -6.0766   -0.1131   -3.3359 H   0  0  0  0  0  0  0  0  0  0  0  0
   -6.1611    0.4801    3.0263 H   0  0  0  0  0  0  0  0  0  0  0  0
   -8.2254   -0.1557    4.2294 H   0  0  0  0  0  0  0  0  0  0  0  0
   -9.5536   -2.3882    0.8081 H   0  0  0  0  0  0  0  0  0  0  0  0
   -7.5187   -1.7236   -0.4242 H   0  0  0  0  0  0  0  0  0  0  0  0
    2.7327   -0.8617    0.0056 H   0  0  0  0  0  0  0  0  0  0  0  0
  1  2  2  0  0  0  0
  1  6  1  0  0  0  0
  1 26  1  0  0  0  0
  2  3  1  0  0  0  0
  2 27  1  0  0  0  0
  3  4  2  0  0  0  0
  3 25  1  0  0  0  0
  4  5  1  0  0  0  0
  4 28  1  0  0  0  0
  5  6  2  0  0  0  0
  5 29  1  0  0  0  0
  6  7  1  0  0  0  0
  7  8  2  0  0  0  0
  7 11  1  0  0  0  0
  8  9  1  0  0  0  0
  9 10  2  0  0  0  0
  9 18  1  0  0  0  0
 10 11  1  0  0  0  0
 10 12  1  0  0  0  0
 11 30  1  0  0  0  0
 12 13  2  0  0  0  0
 12 17  1  0  0  0  0
 13 14  1  0  0  0  0
 13 31  1  0  0  0  0
 14 15  2  0  0  0  0
 14 32  1  0  0  0  0
 15 16  1  0  0  0  0
 16 17  2  0  0  0  0
 16 33  1  0  0  0  0
 17 34  1  0  0  0  0
 18 19  2  0  0  0  0
 18 23  1  0  0  0  0
 19 20  1  0  0  0  0
 19 35  1  0  0  0  0
 20 21  2  0  0  0  0
 20 36  1  0  0  0  0
 21 22  1  0  0  0  0
 21 24  1  0  0  0  0
 22 23  2  0  0  0  0
 22 37  1  0  0  0  0
 23 38  1  0  0  0  0
 25 39  1  0  0  0  0
M  END
$$$$

 OpenBabel05152416193D

 57 62  0  0  0  0  0  0  0  0999 V2000
    2.3446   -1.1473    0.4478 C   0  0  0  0  0  0  0  0  0  0  0  0
    1.2225   -1.9685   -0.2109 C   0  0  0  0  0  0  0  0  0  0  0  0
   -0.0507   -1.2426   -0.0972 C   0  0  0  0  0  0  0  0  0  0  0  0
    0.0561    0.1032    0.0371 C   0  0  0  0  0  0  0  0  0  0  0  0
   -0.9233    0.8683    0.4594 C   0  0  0  0  0  0  0  0  0  0  0  0
   -2.2175    0.2532    0.6647 C   0  0  0  0  0  0  0  0  0  0  0  0
   -2.3403   -1.1119    0.3501 C   0  0  0  0  0  0  0  0  0  0  0  0
   -1.2808   -1.8555   -0.0044 C   0  0  0  0  0  0  0  0  0  0  0  0
   -0.6582    2.2630    0.1533 N   0  0  0  0  0  0  0  0  0  0  0  0
    0.9069    2.3454   -0.0308 S   0  0  0  0  0  0  0  0  0  0  0  0
    1.4166    2.8952    1.2494 O   0  0  0  0  0  0  0  0  0  0  0  0
    1.2739    2.9800   -1.3211 O   0  0  0  0  0  0  0  0  0  0  0  0
    1.2059    0.7859   -0.1164 N   0  0  0  0  0  0  0  0  0  0  0  0
    2.4710    0.2313   -0.1603 C   0  0  0  0  0  0  0  0  0  0  0  0
   -1.4041    3.4838    0.1318 C   0  0  0  0  0  0  0  0  0  0  0  0
   -2.3110    3.5841   -1.0645 C   0  0  0  0  0  0  0  0  0  0  0  0
   -3.2505    2.4721   -1.1218 N   0  0  0  0  0  0  0  0  0  0  0  0
   -2.6732    1.2960   -1.6508 C   0  0  0  0  0  0  0  0  0  0  0  0
   -3.5963    0.1409   -1.5474 C   0  0  0  0  0  0  0  0  0  0  0  0
   -4.5249    0.0368   -2.5292 C   0  0  0  0  0  0  0  0  0  0  0  0
   -5.0183    1.4712   -2.6162 C   0  0  0  0  0  0  0  0  0  0  0  0
   -4.2905    2.7584   -2.0512 C   0  0  0  0  0  0  0  0  0  0  0  0
   -4.7219   -1.9821   -2.9448 C   0  0  0  0  0  0  0  0  0  0  0  0
   -5.4708   -2.0745   -2.2896 C   0  0  0  0  0  0  0  0  0  0  0  0
   -4.5635   -2.5971   -1.2103 N   0  0  0  0  0  0  0  0  0  0  0  0
   -3.8426   -3.6902   -1.2092 C   0  0  0  0  0  0  0  0  0  0  0  0
   -3.8104   -3.9105   -2.4075 C   0  0  0  0  0  0  0  0  0  0  0  0
   -3.3602   -5.7403   -2.1923 C   0  0  0  0  0  0  0  0  0  0  0  0
   -2.6487   -6.1569   -0.8379 C   0  0  0  0  0  0  0  0  0  0  0  0
   -2.8755   -5.3512    0.2821 C   0  0  0  0  0  0  0  0  0  0  0  0
   -3.4811   -4.1889    0.0437 C   0  0  0  0  0  0  0  0  0  0  0  0
   -2.5820   -5.6464    1.5752 F   0  0  0  0  0  0  0  0  0  0  0  0
    3.2782   -1.6593    0.3135 H   0  0  0  0  0  0  0  0  0  0  0  0
    2.1033   -1.0306    1.5182 H   0  0  0  0  0  0  0  0  0  0  0  0
    1.4635   -2.1294   -1.2525 H   0  0  0  0  0  0  0  0  0  0  0  0
    1.1466   -2.9309    0.3045 H   0  0  0  0  0  0  0  0  0  0  0  0
   -3.1595    0.9812    0.5798 H   0  0  0  0  0  0  0  0  0  0  0  0
   -3.3039   -1.5028    0.4075 H   0  0  0  0  0  0  0  0  0  0  0  0
   -1.4225   -2.8922   -0.0908 H   0  0  0  0  0  0  0  0  0  0  0  0
    3.2034    0.8409    0.3845 H   0  0  0  0  0  0  0  0  0  0  0  0
    2.7683    0.1778   -1.2019 H   0  0  0  0  0  0  0  0  0  0  0  0
   -1.9626    3.5135    1.0466 H   0  0  0  0  0  0  0  0  0  0  0  0
   -0.7190    4.3639    0.1105 H   0  0  0  0  0  0  0  0  0  0  0  0
   -2.8913    4.5077   -1.0072 H   0  0  0  0  0  0  0  0  0  0  0  0
   -1.7273    3.5926   -1.9911 H   0  0  0  0  0  0  0  0  0  0  0  0
   -1.9194    1.2164   -2.3074 H   0  0  0  0  0  0  0  0  0  0  0  0
   -2.0078    1.2699   -1.1824 H   0  0  0  0  0  0  0  0  0  0  0  0
   -2.8650   -0.5941   -1.8888 H   0  0  0  0  0  0  0  0  0  0  0  0
   -4.2057   -0.1115   -0.5626 H   0  0  0  0  0  0  0  0  0  0  0  0
   -5.8182    1.7271   -3.2399 H   0  0  0  0  0  0  0  0  0  0  0  0
   -4.9918    3.4175   -1.5544 H   0  0  0  0  0  0  0  0  0  0  0  0
   -3.8170    3.2784   -2.9029 H   0  0  0  0  0  0  0  0  0  0  0  0
   -6.0474   -2.8629   -2.8108 H   0  0  0  0  0  0  0  0  0  0  0  0
   -3.7902   -1.9784   -1.2088 H   0  0  0  0  0  0  0  0  0  0  0  0
   -3.6633   -6.8459   -2.5755 H   0  0  0  0  0  0  0  0  0  0  0  0
   -1.9380   -7.0077   -0.6363 H   0  0  0  0  0  0  0  0  0  0  0  0
   -3.7198   -3.5041    0.8329 H   0  0  0  0  0  0  0  0  0  0  0  0
  1  2  1  0  0  0  0
  1 14  1  0  0  0  0
  1 33  1  0  0  0  0
  1 34  1  0  0  0  0
  2  3  1  0  0  0  0
  2 35  1  0  0  0  0
  2 36  1  0  0  0  0
  3  4  2  0  0  0  0
  3  8  1  0  0  0  0
  4  5  1  0  0  0  0
  4 13  1  0  0  0  0
  5  6  2  0  0  0  0
  5  9  1  0  0  0  0
  6  7  1  0  0  0  0
  6 37  1  0  0  0  0
  7  8  2  0  0  0  0
  7 38  1  0  0  0  0
  8 39  1  0  0  0  0
  9 10  1  0  0  0  0
  9 15  1  0  0  0  0
 10 11  2  0  0  0  0
 10 12  2  0  0  0  0
 10 13  1  0  0  0  0
 13 14  1  0  0  0  0
 14 40  1  0  0  0  0
 14 41  1  0  0  0  0
 15 16  1  0  0  0  0
 15 42  1  0  0  0  0
 15 43  1  0  0  0  0
 16 17  1  0  0  0  0
 16 44  1  0  0  0  0
 16 45  1  0  0  0  0
 17 18  1  0  0  0  0
 17 22  1  0  0  0  0
 18 19  1  0  0  0  0
 18 46  1  0  0  0  0
 18 47  1  0  0  0  0
 19 20  1  0  0  0  0
 19 48  1  0  0  0  0
 19 49  1  0  0  0  0
 20 21  2  0  0  0  0
 20 23  1  0  0  0  0
 21 22  1  0  0  0  0
 21 50  1  0  0  0  0
 22 51  1  0  0  0  0
 22 52  1  0  0  0  0
 23 24  2  0  0  0  0
 23 27  1  0  0  0  0
 24 25  1  0  0  0  0
 24 53  1  0  0  0  0
 25 26  1  0  0  0  0
 25 54  1  0  0  0  0
 26 27  2  0  0  0  0
 26 31  1  0  0  0  0
 27 28  1  0  0  0  0
 28 29  2  0  0  0  0
 28 55  1  0  0  0  0
 29 30  1  0  0  0  0
 29 56  1  0  0  0  0
 30 31  2  0  0  0  0
 30 32  1  0  0  0  0
 31 57  1  0  0  0  0
M  END
$$$$

 OpenBabel05152416193D

 39 42  0  0  0  0  0  0  0  0999 V2000
    1.9645   -0.3513    0.0672 C   0  0  0  0  0  0  0  0  0  0  0  0
    1.6025    0.9832   -0.0513 C   0  0  0  0  0  0  0  0  0  0  0  0
    0.4588    1.2288   -0.3371 C   0  0  0  0  0  0  0  0  0  0  0  0
   -0.3580    0.1818   -0.8054 C   0  0  0  0  0  0  0  0  0  0  0  0
   -0.0534   -1.1757   -0.1599 C   0  0  0  0  0  0  0  0  0  0  0  0
    1.1090   -1.4385    0.0861 C   0  0  0  0  0  0  0  0  0  0  0  0
   -3.7250    0.5702   -0.3491 C   0  0  0  0  0  0  0  0  0  0  0  0
   -4.0173    1.0570    1.2137 N   0  0  0  0  0  0  0  0  0  0  0  0
   -3.8934    0.1509    2.2315 C   0  0  0  0  0  0  0  0  0  0  0  0
   -4.5744    0.5422    3.3348 C   0  0  0  0  0  0  0  0  0  0  0  0
   -4.0998    0.3969    4.6351 C   0  0  0  0  0  0  0  0  0  0  0  0
   -2.8640   -0.1925    4.9137 C   0  0  0  0  0  0  0  0  0  0  0  0
   -1.9697   -0.3503    3.8667 C   0  0  0  0  0  0  0  0  0  0  0  0
   -2.5178   -0.0163    2.5770 C   0  0  0  0  0  0  0  0  0  0  0  0
   -1.9992    1.0015    1.9096 C   0  0  0  0  0  0  0  0  0  0  0  0
   -3.0532    1.8722    1.6430 N   0  0  0  0  0  0  0  0  0  0  0  0
   -1.8486    0.5452    0.6639 C   0  0  0  0  0  0  0  0  0  0  0  0
   -1.8886    1.9561   -0.3911 C   0  0  0  0  0  0  0  0  0  0  0  0
   -2.0425    1.5483   -1.8808 C   0  0  0  0  0  0  0  0  0  0  0  0
   -2.2171   -0.0317   -2.0418 C   0  0  0  0  0  0  0  0  0  0  0  0
   -2.1914   -0.7347   -0.5900 O   0  0  0  0  0  0  0  0  0  0  0  0
   -2.1544   -0.6261   -3.3795 C   0  0  0  0  0  0  0  0  0  0  0  0
   -3.4306   -0.3806   -3.8718 O   0  0  0  0  0  0  0  0  0  0  0  0
    2.8913   -0.5100    0.1874 H   0  0  0  0  0  0  0  0  0  0  0  0
    2.0625    1.9319   -0.0256 H   0  0  0  0  0  0  0  0  0  0  0  0
    0.1433    2.1479    0.2932 H   0  0  0  0  0  0  0  0  0  0  0  0
   -0.8411   -1.9937    0.2543 H   0  0  0  0  0  0  0  0  0  0  0  0
    1.1649   -2.4894    0.2022 H   0  0  0  0  0  0  0  0  0  0  0  0
   -4.1299    1.1142   -1.1559 H   0  0  0  0  0  0  0  0  0  0  0  0
   -4.1430   -0.5043   -0.2423 H   0  0  0  0  0  0  0  0  0  0  0  0
   -5.4396    1.0972    3.0635 H   0  0  0  0  0  0  0  0  0  0  0  0
   -4.7052    0.7749    5.4094 H   0  0  0  0  0  0  0  0  0  0  0  0
   -2.6056   -0.3922    5.9409 H   0  0  0  0  0  0  0  0  0  0  0  0
   -0.9051   -0.5497    4.1513 H   0  0  0  0  0  0  0  0  0  0  0  0
   -1.8533    2.9733    0.0275 H   0  0  0  0  0  0  0  0  0  0  0  0
   -2.0517    2.3228   -2.6428 H   0  0  0  0  0  0  0  0  0  0  0  0
   -1.3219   -0.1403   -3.9982 H   0  0  0  0  0  0  0  0  0  0  0  0
   -1.9054   -1.7008   -3.2728 H   0  0  0  0  0  0  0  0  0  0  0  0
   -4.0501   -0.7259   -3.1570 H   0  0  0  0  0  0  0  0  0  0  0  0
  1  2  2  0  0  0  0
  1  6  1  0  0  0  0
  1 24  1  0  0  0  0
  2  3  1  0  0  0  0
  2 25  1  0  0  0  0
  3  4  2  0  0  0  0
  3 26  1  0  0  0  0
  4  5  1  0  0  0  0
  4  7  1  0  0  0  0
  5  6  2  0  0  0  0
  5 27  1  0  0  0  0
  6 28  1  0  0  0  0
  7  8  1  0  0  0  0
  7 29  1  0  0  0  0
  7 30  1  0  0  0  0
  8  9  1  0  0  0  0
  8 16  1  0  0  0  0
  9 10  2  0  0  0  0
  9 14  1  0  0  0  0
 10 11  1  0  0  0  0
 10 31  1  0  0  0  0
 11 12  2  0  0  0  0
 11 32  1  0  0  0  0
 12 13  1  0  0  0  0
 12 33  1  0  0  0  0
 13 14  2  0  0  0  0
 13 34  1  0  0  0  0
 14 15  1  0  0  0  0
 15 16  2  0  0  0  0
 15 17  1  0  0  0  0
 17 18  2  0  0  0  0
 17 21  1  0  0  0  0
 18 19  1  0  0  0  0
 18 35  1  0  0  0  0
 19 20  2  0  0  0  0
 19 36  1  0  0  0  0
 20 21  1  0  0  0  0
 20 22  1  0  0  0  0
 22 23  1  0  0  0  0
 22 37  1  0  0  0  0
 22 38  1  0  0  0  0
 23 39  1  0  0  0  0
M  END
$$$$

 OpenBabel05152416193D

 32 34  0  0  1  0  0  0  0  0999 V2000
    4.5160   -1.9429    0.5679 C   0  0  0  0  0  0  0  0  0  0  0  0
    5.6596   -1.5317   -0.0432 N   0  0  0  0  0  0  0  0  0  0  0  0
    5.2702   -1.2785   -1.3074 C   0  0  0  0  0  0  0  0  0  0  0  0
    6.0161   -0.8572   -2.4056 C   0  0  0  0  0  0  0  0  0  0  0  0
    5.3392   -0.6316   -3.5732 N   0  0  0  0  0  0  0  0  0  0  0  0
    3.9868   -0.8356   -3.6675 C   0  0  0  0  0  0  0  0  0  0  0  0
    3.2789   -1.3107   -2.6009 N   0  0  0  0  0  0  0  0  0  0  0  0
    3.9443   -1.5183   -1.4358 C   0  0  0  0  0  0  0  0  0  0  0  0
    3.4541   -2.0132   -0.2874 N   0  0  0  0  0  0  0  0  0  0  0  0
    2.0953   -2.5485   -0.0408 C   0  0  1  0  0  0  0  0  0  0  0  0
    1.6851   -3.5912   -1.1168 C   0  0  1  0  0  0  0  0  0  0  0  0
    1.7716   -4.9493   -0.4313 C   0  0  0  0  0  0  0  0  0  0  0  0
    2.2234   -4.6029    0.9926 C   0  0  2  0  0  0  0  0  0  0  0  0
    2.0306   -3.2061    1.2175 O   0  0  0  0  0  0  0  0  0  0  0  0
    3.6843   -5.0594    1.2800 C   0  0  0  0  0  0  0  0  0  0  0  0
    4.6698   -4.5208    0.4409 O   0  0  0  0  0  0  0  0  0  0  0  0
    0.5605   -5.6728   -0.4746 O   0  0  0  0  0  0  0  0  0  0  0  0
    0.4046   -3.3358   -1.6483 O   0  0  0  0  0  0  0  0  0  0  0  0
    3.1529   -0.4537   -5.1577 Cl  0  0  0  0  0  0  0  0  0  0  0  0
    7.4187   -0.6765   -2.3483 N   0  0  0  0  0  0  0  0  0  0  0  0
    4.4798   -2.2467    1.6071 H   0  0  0  0  0  0  0  0  0  0  0  0
    1.3878   -1.6890   -0.0750 H   0  0  0  0  0  0  0  0  0  0  0  0
    2.3875   -3.5810   -1.9713 H   0  0  0  0  0  0  0  0  0  0  0  0
    2.5216   -5.6049   -0.9241 H   0  0  0  0  0  0  0  0  0  0  0  0
    1.6035   -5.1850    1.7141 H   0  0  0  0  0  0  0  0  0  0  0  0
    3.9295   -4.7884    2.3296 H   0  0  0  0  0  0  0  0  0  0  0  0
    3.7553   -6.1589    1.1748 H   0  0  0  0  0  0  0  0  0  0  0  0
    4.2956   -4.3838   -0.4642 H   0  0  0  0  0  0  0  0  0  0  0  0
   -0.1139   -5.2188    0.0904 H   0  0  0  0  0  0  0  0  0  0  0  0
   -0.2446   -3.2722   -0.9018 H   0  0  0  0  0  0  0  0  0  0  0  0
    7.9528   -0.9131   -1.4989 H   0  0  0  0  0  0  0  0  0  0  0  0
    7.9321   -0.3474   -3.1794 H   0  0  0  0  0  0  0  0  0  0  0  0
  1  2  2  0  0  0  0
  1  9  1  0  0  0  0
  1 21  1  0  0  0  0
  2  3  1  0  0  0  0
  3  4  2  0  0  0  0
  3  8  1  0  0  0  0
  4  5  1  0  0  0  0
  4 20  1  0  0  0  0
  5  6  2  0  0  0  0
  6  7  1  0  0  0  0
  6 19  1  0  0  0  0
  7  8  2  0  0  0  0
  8  9  1  0  0  0  0
 10 11  1  0  0  0  0
 10 14  1  0  0  0  0
 10 22  1  6  0  0  0
 10  9  1  0  0  0  0
 11 12  1  0  0  0  0
 11 18  1  0  0  0  0
 11 23  1  6  0  0  0
 12 13  1  0  0  0  0
 12 17  1  0  0  0  0
 12 24  1  0  0  0  0
 13 14  1  0  0  0  0
 13 25  1  1  0  0  0
 13 15  1  0  0  0  0
 15 16  1  0  0  0  0
 15 26  1  0  0  0  0
 15 27  1  0  0  0  0
 16 28  1  0  0  0  0
 17 29  1  0  0  0  0
 18 30  1  0  0  0  0
 20 31  1  0  0  0  0
 20 32  1  0  0  0  0
M  END
$$$$

 OpenBabel05152416193D

 30 32  0  0  1  0  0  0  0  0999 V2000
   -0.8852   -1.4265    0.0075 C   0  0  0  0  0  0  0  0  0  0  0  0
    0.3035   -0.7074    0.0091 C   0  0  0  0  0  0  0  0  0  0  0  0
    0.2810    0.6462   -0.0028 C   0  0  0  0  0  0  0  0  0  0  0  0
   -0.8785    1.3414   -0.0094 N   0  0  0  0  0  0  0  0  0  0  0  0
   -2.0584    0.6496   -0.0054 C   0  0  0  0  0  0  0  0  0  0  0  0
   -2.0547   -0.7221    0.0004 N   0  0  0  0  0  0  0  0  0  0  0  0
    1.5452    1.1138   -0.0129 N   0  0  0  0  0  0  0  0  0  0  0  0
    2.3111   -0.0036    0.0048 C   0  0  0  0  0  0  0  0  0  0  0  0
    1.5718   -1.1482    0.0156 N   0  0  0  0  0  0  0  0  0  0  0  0
    2.0382    2.5034   -0.0430 C   0  0  1  0  0  0  0  0  0  0  0  0
    1.5727    3.2255   -1.3048 C   0  0  1  0  0  0  0  0  0  0  0  0
    1.6045    4.6734   -0.8639 C   0  0  1  0  0  0  0  0  0  0  0  0
    1.2357    4.5447    0.6280 C   0  0  2  0  0  0  0  0  0  0  0  0
    1.5615    3.2322    1.0735 O   0  0  0  0  0  0  0  0  0  0  0  0
   -0.2447    4.8352    0.9270 C   0  0  0  0  0  0  0  0  0  0  0  0
   -1.1073    3.9178    0.3257 O   0  0  0  0  0  0  0  0  0  0  0  0
    2.8813    5.2536   -1.0171 O   0  0  0  0  0  0  0  0  0  0  0  0
    2.3351    2.9435   -2.4537 O   0  0  0  0  0  0  0  0  0  0  0  0
   -0.8931   -2.5077    0.0090 H   0  0  0  0  0  0  0  0  0  0  0  0
   -2.9993    1.1848   -0.0092 H   0  0  0  0  0  0  0  0  0  0  0  0
    3.3917    0.0076    0.0018 H   0  0  0  0  0  0  0  0  0  0  0  0
    3.1504    2.5152    0.0113 H   0  0  0  0  0  0  0  0  0  0  0  0
    0.5263    2.9360   -1.5028 H   0  0  0  0  0  0  0  0  0  0  0  0
    0.9013    5.3154   -1.4394 H   0  0  0  0  0  0  0  0  0  0  0  0
    1.8126    5.3055    1.2020 H   0  0  0  0  0  0  0  0  0  0  0  0
   -0.3994    4.7739    2.0259 H   0  0  0  0  0  0  0  0  0  0  0  0
   -0.5138    5.8672    0.6144 H   0  0  0  0  0  0  0  0  0  0  0  0
   -1.0822    4.0907   -0.6485 H   0  0  0  0  0  0  0  0  0  0  0  0
    3.5561    4.7014   -0.5501 H   0  0  0  0  0  0  0  0  0  0  0  0
    3.2863    3.1468   -2.2510 H   0  0  0  0  0  0  0  0  0  0  0  0
  1  2  2  0  0  0  0
  1  6  1  0  0  0  0
  1 19  1  0  0  0  0
  2  3  1  0  0  0  0
  2  9  1  0  0  0  0
  3  4  2  0  0  0  0
  3  7  1  0  0  0  0
  4  5  1  0  0  0  0
  5  6  2  0  0  0  0
  5 20  1  0  0  0  0
  7  8  1  0  0  0  0
  7 10  1  0  0  0  0
  8  9  2  0  0  0  0
  8 21  1  0  0  0  0
 10 11  1  0  0  0  0
 10 14  1  0  0  0  0
 10 22  1  1  0  0  0
 11 12  1  0  0  0  0
 11 18  1  0  0  0  0
 11 23  1  6  0  0  0
 12 13  1  0  0  0  0
 12 17  1  0  0  0  0
 12 24  1  6  0  0  0
 13 14  1  0  0  0  0
 13 25  1  1  0  0  0
 13 15  1  0  0  0  0
 15 16  1  0  0  0  0
 15 26  1  0  0  0  0
 15 27  1  0  0  0  0
 16 28  1  0  0  0  0
 17 29  1  0  0  0  0
 18 30  1  0  0  0  0
M  END
$$$$

 OpenBabel05152416193D

 53 55  0  0  0  0  0  0  0  0999 V2000
    1.1225   -0.0635    0.0613 C   0  0  0  0  0  0  0  0  0  0  0  0
    0.5604    1.0833   -0.4115 O   0  0  0  0  0  0  0  0  0  0  0  0
    0.9030    2.3542   -0.1493 C   0  0  0  0  0  0  0  0  0  0  0  0
   -0.0893    3.3883   -0.2032 C   0  0  0  0  0  0  0  0  0  0  0  0
    0.2696    4.6654   -0.0300 C   0  0  0  0  0  0  0  0  0  0  0  0
    1.5488    4.9594    0.2357 C   0  0  0  0  0  0  0  0  0  0  0  0
    2.5963    3.9994    0.3488 C   0  0  0  0  0  0  0  0  0  0  0  0
    2.2393    2.6790    0.1346 C   0  0  0  0  0  0  0  0  0  0  0  0
    4.0475    4.2821    0.6585 C   0  0  0  0  0  0  0  0  0  0  0  0
    4.5466    5.5083    0.8689 C   0  0  0  0  0  0  0  0  0  0  0  0
    3.5827    6.6828    0.8239 C   0  0  0  0  0  0  0  0  0  0  0  0
    2.7831    7.6571    0.7865 N   0  0  0  0  0  0  0  0  0  0  0  0
    5.9986    5.8236    1.1859 C   0  0  0  0  0  0  0  0  0  0  0  0
    6.7929    4.9013    1.1509 O   0  0  0  0  0  0  0  0  0  0  0  0
    6.4902    7.0958    1.4704 N   0  0  0  0  0  0  0  0  0  0  0  0
    5.7468    8.3108    1.5822 C   0  0  0  0  0  0  0  0  0  0  0  0
    5.8198    9.2927    0.6511 N   0  0  0  0  0  0  0  0  0  0  0  0
    4.8720   10.2152    0.7730 N   0  0  0  0  0  0  0  0  0  0  0  0
    4.0390   10.0119    1.8234 C   0  0  0  0  0  0  0  0  0  0  0  0
    4.5254    8.6509    2.7196 S   0  0  0  0  0  0  0  0  0  0  0  0
    2.7142   10.7200    1.9531 C   0  0  0  0  0  0  0  0  0  0  0  0
    2.8953   11.9499    2.5463 F   0  0  0  0  0  0  0  0  0  0  0  0
    2.1486   10.9029    0.6984 F   0  0  0  0  0  0  0  0  0  0  0  0
    1.8292    9.9686    2.7087 F   0  0  0  0  0  0  0  0  0  0  0  0
   -1.4138    3.2380   -0.4211 O   0  0  0  0  0  0  0  0  0  0  0  0
   -2.0371    2.0465   -0.5656 C   0  0  0  0  0  0  0  0  0  0  0  0
   -1.5641    1.3515   -1.8156 C   0  0  0  0  0  0  0  0  0  0  0  0
   -1.8130   -0.0242   -2.0028 C   0  0  0  0  0  0  0  0  0  0  0  0
   -1.2127   -0.6624   -3.1040 C   0  0  0  0  0  0  0  0  0  0  0  0
   -0.4300    0.0516   -4.0308 C   0  0  0  0  0  0  0  0  0  0  0  0
   -0.2029    1.4121   -3.8366 C   0  0  0  0  0  0  0  0  0  0  0  0
   -0.7588    2.0519   -2.7518 C   0  0  0  0  0  0  0  0  0  0  0  0
    0.0965   -0.6355   -5.2551 C   0  0  0  0  0  0  0  0  0  0  0  0
    0.9518   -1.6639   -4.9109 F   0  0  0  0  0  0  0  0  0  0  0  0
   -0.9870   -1.1453   -5.9441 F   0  0  0  0  0  0  0  0  0  0  0  0
    0.7651    0.2467   -6.0888 F   0  0  0  0  0  0  0  0  0  0  0  0
   -2.7064   -0.8602   -1.0924 C   0  0  0  0  0  0  0  0  0  0  0  0
   -3.7297   -1.3640   -1.8683 F   0  0  0  0  0  0  0  0  0  0  0  0
   -1.9911   -1.9068   -0.5436 F   0  0  0  0  0  0  0  0  0  0  0  0
   -3.3017   -0.1684   -0.0545 F   0  0  0  0  0  0  0  0  0  0  0  0
    0.6778   -0.9007   -0.5111 H   0  0  0  0  0  0  0  0  0  0  0  0
    0.8372   -0.1486    1.1267 H   0  0  0  0  0  0  0  0  0  0  0  0
    2.2182   -0.0861   -0.0831 H   0  0  0  0  0  0  0  0  0  0  0  0
   -0.4639    5.4687   -0.0987 H   0  0  0  0  0  0  0  0  0  0  0  0
    1.5497    5.9696    0.3284 H   0  0  0  0  0  0  0  0  0  0  0  0
    3.0074    1.9192    0.1719 H   0  0  0  0  0  0  0  0  0  0  0  0
    4.7353    3.4408    0.7109 H   0  0  0  0  0  0  0  0  0  0  0  0
    7.5167    7.1991    1.5163 H   0  0  0  0  0  0  0  0  0  0  0  0
   -1.7511    1.4669    0.3429 H   0  0  0  0  0  0  0  0  0  0  0  0
   -3.1313    2.1953   -0.5740 H   0  0  0  0  0  0  0  0  0  0  0  0
   -1.3735   -1.7214   -3.2522 H   0  0  0  0  0  0  0  0  0  0  0  0
    0.4040    1.9963   -4.5181 H   0  0  0  0  0  0  0  0  0  0  0  0
   -0.5310    3.1057   -2.6550 H   0  0  0  0  0  0  0  0  0  0  0  0
  1  2  1  0  0  0  0
  1 41  1  0  0  0  0
  1 42  1  0  0  0  0
  1 43  1  0  0  0  0
  2  3  1  0  0  0  0
  3  4  2  0  0  0  0
  3  8  1  0  0  0  0
  4  5  1  0  0  0  0
  4 25  1  0  0  0  0
  5  6  2  0  0  0  0
  5 44  1  0  0  0  0
  6  7  1  0  0  0  0
  6 45  1  0  0  0  0
  7  8  2  0  0  0  0
  7  9  1  0  0  0  0
  8 46  1  0  0  0  0
  9 10  2  0  0  0  0
  9 47  1  0  0  0  0
 10 11  1  0  0  0  0
 10 13  1  0  0  0  0
 11 12  3  0  0  0  0
 13 14  2  0  0  0  0
 13 15  1  0  0  0  0
 15 16  1  0  0  0  0
 15 48  1  0  0  0  0
 16 17  2  0  0  0  0
 16 20  1  0  0  0  0
 17 18  1  0  0  0  0
 18 19  2  0  0  0  0
 19 20  1  0  0  0  0
 19 21  1  0  0  0  0
 21 22  1  0  0  0  0
 21 23  1  0  0  0  0
 21 24  1  0  0  0  0
 25 26  1  0  0  0  0
 26 27  1  0  0  0  0
 26 49  1  0  0  0  0
 26 50  1  0  0  0  0
 27 28  2  0  0  0  0
 27 32  1  0  0  0  0
 28 29  1  0  0  0  0
 28 37  1  0  0  0  0
 29 30  2  0  0  0  0
 29 51  1  0  0  0  0
 30 31  1  0  0  0  0
 30 33  1  0  0  0  0
 31 32  2  0  0  0  0
 31 52  1  0  0  0  0
 32 53  1  0  0  0  0
 33 34  1  0  0  0  0
 33 35  1  0  0  0  0
 33 36  1  0  0  0  0
 37 38  1  0  0  0  0
 37 39  1  0  0  0  0
 37 40  1  0  0  0  0
M  END
$$$$

 OpenBabel05152416193D

 42 43  0  0  0  0  0  0  0  0999 V2000
    1.0184   -0.1462   -0.0240 C   0  0  0  0  0  0  0  0  0  0  0  0
    0.6349    0.8422   -0.8893 O   0  0  0  0  0  0  0  0  0  0  0  0
    1.0260    2.1274   -0.7943 C   0  0  0  0  0  0  0  0  0  0  0  0
    2.3441    2.5102   -0.5166 C   0  0  0  0  0  0  0  0  0  0  0  0
    2.6895    3.8616   -0.3618 C   0  0  0  0  0  0  0  0  0  0  0  0
    1.7098    4.8576   -0.5190 C   0  0  0  0  0  0  0  0  0  0  0  0
    0.3977    4.4728   -0.7616 C   0  0  0  0  0  0  0  0  0  0  0  0
    0.0540    3.1102   -0.8669 C   0  0  0  0  0  0  0  0  0  0  0  0
   -1.3403    2.6841   -0.7909 C   0  0  0  0  0  0  0  0  0  0  0  0
   -1.9753    3.3121    0.0435 O   0  0  0  0  0  0  0  0  0  0  0  0
   -1.8650    1.5616   -1.3852 O   0  0  0  0  0  0  0  0  0  0  0  0
   -3.2150    1.1731   -1.5596 C   0  0  0  0  0  0  0  0  0  0  0  0
   -4.2688    1.8827   -0.6585 C   0  0  0  0  0  0  0  0  0  0  0  0
   -4.2319    3.3661   -0.7677 N   0  0  0  0  0  0  0  0  0  0  0  0
   -3.7407    3.9446   -2.0395 C   0  0  0  0  0  0  0  0  0  0  0  0
   -3.1938    5.3422   -1.7458 C   0  0  0  0  0  0  0  0  0  0  0  0
   -4.3557    6.2035   -1.3418 C   0  0  0  0  0  0  0  0  0  0  0  0
   -5.0517    5.5933   -0.1037 C   0  0  0  0  0  0  0  0  0  0  0  0
   -5.4229    4.0996   -0.3121 C   0  0  0  0  0  0  0  0  0  0  0  0
    2.0631    6.5743   -0.3218 Cl  0  0  0  0  0  0  0  0  0  0  0  0
    4.0171    4.1986   -0.0159 N   0  0  0  0  0  0  0  0  0  0  0  0
    0.5548   -1.0965   -0.3529 H   0  0  0  0  0  0  0  0  0  0  0  0
    0.6357    0.1065    0.9891 H   0  0  0  0  0  0  0  0  0  0  0  0
    2.1173   -0.2501   -0.0134 H   0  0  0  0  0  0  0  0  0  0  0  0
    3.0970    1.7518   -0.3805 H   0  0  0  0  0  0  0  0  0  0  0  0
   -0.3472    5.2544   -0.8179 H   0  0  0  0  0  0  0  0  0  0  0  0
   -3.5034    1.3657   -2.6167 H   0  0  0  0  0  0  0  0  0  0  0  0
   -3.3154    0.0709   -1.4777 H   0  0  0  0  0  0  0  0  0  0  0  0
   -5.2838    1.5034   -0.9077 H   0  0  0  0  0  0  0  0  0  0  0  0
   -4.0622    1.5723    0.3956 H   0  0  0  0  0  0  0  0  0  0  0  0
   -4.5346    3.9089   -2.8085 H   0  0  0  0  0  0  0  0  0  0  0  0
   -2.8952    3.4183   -2.4907 H   0  0  0  0  0  0  0  0  0  0  0  0
   -2.6571    5.7296   -2.6344 H   0  0  0  0  0  0  0  0  0  0  0  0
   -2.4766    5.3674   -0.9016 H   0  0  0  0  0  0  0  0  0  0  0  0
   -3.9767    7.2252   -1.1233 H   0  0  0  0  0  0  0  0  0  0  0  0
   -5.0404    6.2397   -2.2118 H   0  0  0  0  0  0  0  0  0  0  0  0
   -4.3547    5.6621    0.7628 H   0  0  0  0  0  0  0  0  0  0  0  0
   -5.9573    6.1889    0.1229 H   0  0  0  0  0  0  0  0  0  0  0  0
   -5.8180    3.6856    0.6438 H   0  0  0  0  0  0  0  0  0  0  0  0
   -6.2106    4.0062   -1.0877 H   0  0  0  0  0  0  0  0  0  0  0  0
    4.3044    5.1745    0.1313 H   0  0  0  0  0  0  0  0  0  0  0  0
    4.7068    3.4503    0.1386 H   0  0  0  0  0  0  0  0  0  0  0  0
  1  2  1  0  0  0  0
  1 22  1  0  0  0  0
  1 23  1  0  0  0  0
  1 24  1  0  0  0  0
  2  3  1  0  0  0  0
  3  4  2  0  0  0  0
  3  8  1  0  0  0  0
  4  5  1  0  0  0  0
  4 25  1  0  0  0  0
  5  6  2  0  0  0  0
  5 21  1  0  0  0  0
  6  7  1  0  0  0  0
  6 20  1  0  0  0  0
  7  8  2  0  0  0  0
  7 26  1  0  0  0  0
  8  9  1  0  0  0  0
  9 10  2  0  0  0  0
  9 11  1  0  0  0  0
 11 12  1  0  0  0  0
 12 13  1  0  0  0  0
 12 27  1  0  0  0  0
 12 28  1  0  0  0  0
 13 14  1  0  0  0  0
 13 29  1  0  0  0  0
 13 30  1  0  0  0  0
 14 15  1  0  0  0  0
 14 19  1  0  0  0  0
 15 16  1  0  0  0  0
 15 31  1  0  0  0  0
 15 32  1  0  0  0  0
 16 17  1  0  0  0  0
 16 33  1  0  0  0  0
 16 34  1  0  0  0  0
 17 18  1  0  0  0  0
 17 35  1  0  0  0  0
 17 36  1  0  0  0  0
 18 19  1  0  0  0  0
 18 37  1  0  0  0  0
 18 38  1  0  0  0  0
 19 39  1  0  0  0  0
 19 40  1  0  0  0  0
 21 41  1  0  0  0  0
 21 42  1  0  0  0  0
M  END
$$$$

 OpenBabel05152416193D

 43 46  0  0  0  0  0  0  0  0999 V2000
    1.3518   -0.2200    0.0336 C   0  0  0  0  0  0  0  0  0  0  0  0
    0.8871    1.0740   -0.0665 C   0  0  0  0  0  0  0  0  0  0  0  0
   -0.4885    1.2175    0.0592 C   0  0  0  0  0  0  0  0  0  0  0  0
   -1.3748    0.2150   -0.0416 C   0  0  0  0  0  0  0  0  0  0  0  0
   -0.8587   -1.0465    0.0004 C   0  0  0  0  0  0  0  0  0  0  0  0
    0.5000   -1.2580   -0.0006 C   0  0  0  0  0  0  0  0  0  0  0  0
   -2.8406    0.4593   -0.2393 C   0  0  0  0  0  0  0  0  0  0  0  0
   -3.0991    1.1971    0.6050 C   0  0  0  0  0  0  0  0  0  0  0  0
   -2.6461    2.5995    1.0559 C   0  0  0  0  0  0  0  0  0  0  0  0
   -2.8998    3.3927   -0.1758 C   0  0  0  0  0  0  0  0  0  0  0  0
   -4.2814    3.6046   -0.3399 O   0  0  0  0  0  0  0  0  0  0  0  0
   -5.2234    2.5274   -0.4818 C   0  0  0  0  0  0  0  0  0  0  0  0
   -6.1609    2.5752   -1.4527 C   0  0  0  0  0  0  0  0  0  0  0  0
   -6.0237    3.6658   -2.5754 C   0  0  0  0  0  0  0  0  0  0  0  0
   -6.8651    3.6538   -3.8260 C   0  0  0  0  0  0  0  0  0  0  0  0
   -7.3680    4.0100   -3.8173 C   0  0  0  0  0  0  0  0  0  0  0  0
   -6.4956    5.3079   -4.6913 O   0  0  0  0  0  0  0  0  0  0  0  0
   -8.7608    2.0355   -2.2436 O   0  0  0  0  0  0  0  0  0  0  0  0
   -7.2664    1.5929   -1.3476 C   0  0  0  0  0  0  0  0  0  0  0  0
   -7.0493    0.4855   -0.5375 C   0  0  0  0  0  0  0  0  0  0  0  0
   -6.1166    0.4729    0.2613 C   0  0  0  0  0  0  0  0  0  0  0  0
   -5.5940    1.1425    0.3380 C   0  0  0  0  0  0  0  0  0  0  0  0
   -4.6387    0.5279    2.0831 C   0  0  0  0  0  0  0  0  0  0  0  0
   -4.9378   -0.5282    2.1649 C   0  0  0  0  0  0  0  0  0  0  0  0
   -5.9156   -0.5103    1.2602 O   0  0  0  0  0  0  0  0  0  0  0  0
    2.3936   -0.4101    0.1469 H   0  0  0  0  0  0  0  0  0  0  0  0
    1.5446    1.9122   -0.2382 H   0  0  0  0  0  0  0  0  0  0  0  0
   -0.7617    2.1563    0.1246 H   0  0  0  0  0  0  0  0  0  0  0  0
   -1.5191   -1.8828    0.0401 H   0  0  0  0  0  0  0  0  0  0  0  0
    0.8849   -2.2512   -0.0387 H   0  0  0  0  0  0  0  0  0  0  0  0
   -3.0281    1.0351   -1.1119 H   0  0  0  0  0  0  0  0  0  0  0  0
   -3.3784   -0.4649   -0.2871 H   0  0  0  0  0  0  0  0  0  0  0  0
   -3.9249    1.6487    0.7318 H   0  0  0  0  0  0  0  0  0  0  0  0
   -2.7245    0.5718    1.7863 H   0  0  0  0  0  0  0  0  0  0  0  0
   -3.0247    3.1362    1.9315 H   0  0  0  0  0  0  0  0  0  0  0  0
   -1.7296    2.4453    1.3764 H   0  0  0  0  0  0  0  0  0  0  0  0
   -2.3785    4.3238   -0.1041 H   0  0  0  0  0  0  0  0  0  0  0  0
   -2.5192    2.8472   -1.0259 H   0  0  0  0  0  0  0  0  0  0  0  0
   -5.3626    4.2480   -2.5843 H   0  0  0  0  0  0  0  0  0  0  0  0
   -7.6293    2.5340   -3.4186 H   0  0  0  0  0  0  0  0  0  0  0  0
   -7.7091   -0.3403   -0.6166 H   0  0  0  0  0  0  0  0  0  0  0  0
   -3.8873    1.6275    2.3656 H   0  0  0  0  0  0  0  0  0  0  0  0
   -4.8257   -1.3028    2.8813 H   0  0  0  0  0  0  0  0  0  0  0  0
  1  2  2  0  0  0  0
  1  6  1  0  0  0  0
  1 26  1  0  0  0  0
  2  3  1  0  0  0  0
  2 27  1  0  0  0  0
  3  4  2  0  0  0  0
  3 28  1  0  0  0  0
  4  5  1  0  0  0  0
  4  7  1  0  0  0  0
  5  6  2  0  0  0  0
  5 29  1  0  0  0  0
  6 30  1  0  0  0  0
  7  8  1  0  0  0  0
  7 31  1  0  0  0  0
  7 32  1  0  0  0  0
  8  9  1  0  0  0  0
  8 33  1  0  0  0  0
  8 34  1  0  0  0  0
  9 10  1  0  0  0  0
  9 35  1  0  0  0  0
  9 36  1  0  0  0  0
 10 11  1  0  0  0  0
 10 37  1  0  0  0  0
 10 38  1  0  0  0  0
 11 12  1  0  0  0  0
 12 13  2  0  0  0  0
 12 22  1  0  0  0  0
 13 14  1  0  0  0  0
 13 19  1  0  0  0  0
 14 15  2  0  0  0  0
 14 39  1  0  0  0  0
 15 16  1  0  0  0  0
 15 40  1  0  0  0  0
 16 17  2  0  0  0  0
 16 18  1  0  0  0  0
 18 19  1  0  0  0  0
 19 20  2  0  0  0  0
 20 21  1  0  0  0  0
 20 41  1  0  0  0  0
 21 22  2  0  0  0  0
 21 25  1  0  0  0  0
 22 23  1  0  0  0  0
 23 24  2  0  0  0  0
 23 42  1  0  0  0  0
 24 25  1  0  0  0  0
 24 43  1  0  0  0  0
M  END
$$$$

 OpenBabel05152416193D

 43 43  0  0  0  0  0  0  0  0999 V2000
    0.9797   -0.0551   -0.0876 C   0  0  0  0  0  0  0  0  0  0  0  0
    0.4824    1.0721   -0.9679 C   0  0  0  0  0  0  0  0  0  0  0  0
    0.9821    0.8672   -2.3843 C   0  0  0  0  0  0  0  0  0  0  0  0
   -1.0409    1.0659   -0.9660 C   0  0  0  0  0  0  0  0  0  0  0  0
    0.9778    2.4008   -0.4382 C   0  0  0  0  0  0  0  0  0  0  0  0
    1.8723    2.5065    0.6176 C   0  0  0  0  0  0  0  0  0  0  0  0
    2.2050    3.7395    1.1366 C   0  0  0  0  0  0  0  0  0  0  0  0
    1.6315    4.8822    0.5978 C   0  0  0  0  0  0  0  0  0  0  0  0
    0.7353    4.8097   -0.4737 C   0  0  0  0  0  0  0  0  0  0  0  0
    0.4428    3.5446   -0.9944 C   0  0  0  0  0  0  0  0  0  0  0  0
   -0.3522    3.3620   -2.0285 O   0  0  0  0  0  0  0  0  0  0  0  0
    0.1051    6.0734   -1.0414 C   0  0  0  0  0  0  0  0  0  0  0  0
   -0.6935    6.7727    0.0356 C   0  0  0  0  0  0  0  0  0  0  0  0
    1.1873    6.9928   -1.5595 C   0  0  0  0  0  0  0  0  0  0  0  0
   -0.8229    5.8186   -2.1696 C   0  0  0  0  0  0  0  0  0  0  0  0
    3.1705    3.8491    2.2844 C   0  0  0  0  0  0  0  0  0  0  0  0
    2.9106    4.6655    3.3437 C   0  0  0  0  0  0  0  0  0  0  0  0
    1.7182    5.4554    3.4134 C   0  0  0  0  0  0  0  0  0  0  0  0
    0.7795    6.1104    3.5296 N   0  0  0  0  0  0  0  0  0  0  0  0
    3.8189    4.7885    4.4294 C   0  0  0  0  0  0  0  0  0  0  0  0
    4.5028    4.9384    5.3417 N   0  0  0  0  0  0  0  0  0  0  0  0
    0.6244   -0.9969   -0.4586 H   0  0  0  0  0  0  0  0  0  0  0  0
    0.6238    0.0898    0.9219 H   0  0  0  0  0  0  0  0  0  0  0  0
    2.0588   -0.0582   -0.0843 H   0  0  0  0  0  0  0  0  0  0  0  0
    0.6246   -0.0749   -2.7655 H   0  0  0  0  0  0  0  0  0  0  0  0
    0.6268    1.6604   -3.0192 H   0  0  0  0  0  0  0  0  0  0  0  0
    2.0594    0.8674   -2.3890 H   0  0  0  0  0  0  0  0  0  0  0  0
   -1.4038    1.2175    0.0349 H   0  0  0  0  0  0  0  0  0  0  0  0
   -1.4269    1.8368   -1.5884 H   0  0  0  0  0  0  0  0  0  0  0  0
   -1.4039    0.1299   -1.3458 H   0  0  0  0  0  0  0  0  0  0  0  0
    2.3021    1.6263    1.0449 H   0  0  0  0  0  0  0  0  0  0  0  0
    1.8928    5.8352    1.0099 H   0  0  0  0  0  0  0  0  0  0  0  0
   -0.8655    3.7812   -2.5071 H   0  0  0  0  0  0  0  0  0  0  0  0
   -0.0424    7.0446    0.8483 H   0  0  0  0  0  0  0  0  0  0  0  0
   -1.1466    7.6641   -0.3690 H   0  0  0  0  0  0  0  0  0  0  0  0
   -1.4673    6.1184    0.4034 H   0  0  0  0  0  0  0  0  0  0  0  0
    1.7548    6.4948   -2.3294 H   0  0  0  0  0  0  0  0  0  0  0  0
    0.7409    7.8845   -1.9699 H   0  0  0  0  0  0  0  0  0  0  0  0
    1.8458    7.2652   -0.7532 H   0  0  0  0  0  0  0  0  0  0  0  0
   -0.1713    5.3801   -3.0354 H   0  0  0  0  0  0  0  0  0  0  0  0
   -1.6659    5.1355   -1.7678 H   0  0  0  0  0  0  0  0  0  0  0  0
   -1.2801    6.5889   -2.6011 H   0  0  0  0  0  0  0  0  0  0  0  0
    4.0835    3.2675    2.2696 H   0  0  0  0  0  0  0  0  0  0  0  0
  1  2  1  0  0  0  0
  1 22  1  0  0  0  0
  1 23  1  0  0  0  0
  1 24  1  0  0  0  0
  2  3  1  0  0  0  0
  2  4  1  0  0  0  0
  2  5  1  0  0  0  0
  3 25  1  0  0  0  0
  3 26  1  0  0  0  0
  3 27  1  0  0  0  0
  4 28  1  0  0  0  0
  4 29  1  0  0  0  0
  4 30  1  0  0  0  0
  5  6  2  0  0  0  0
  5 10  1  0  0  0  0
  6  7  1  0  0  0  0
  6 31  1  0  0  0  0
  7  8  2  0  0  0  0
  7 16  1  0  0  0  0
  8  9  1  0  0  0  0
  8 32  1  0  0  0  0
  9 10  2  0  0  0  0
  9 12  1  0  0  0  0
 10 11  1  0  0  0  0
 11 33  1  0  0  0  0
 12 13  1  0  0  0  0
 12 14  1  0  0  0  0
 12 15  1  0  0  0  0
 13 34  1  0  0  0  0
 13 35  1  0  0  0  0
 13 36  1  0  0  0  0
 14 37  1  0  0  0  0
 14 38  1  0  0  0  0
 14 39  1  0  0  0  0
 15 40  1  0  0  0  0
 15 41  1  0  0  0  0
 15 42  1  0  0  0  0
 16 17  2  0  0  0  0
 16 43  1  0  0  0  0
 17 18  1  0  0  0  0
 17 20  1  0  0  0  0
 18 19  3  0  0  0  0
 20 21  3  0  0  0  0
M  END
$$$$

 OpenBabel05152416193D

 43 42  0  0  1  0  0  0  0  0999 V2000
    0.8064   -2.9943    0.8289 C   0  0  0  0  0  0  0  0  0  0  0  0
    0.1739   -1.5047   -0.1000 C   0  0  2  0  0  0  0  0  0  0  0  0
    0.4796    0.4837    1.1821 C   0  0  0  0  0  0  0  0  0  0  0  0
    1.4349   -0.0892    2.6831 C   0  0  0  0  0  0  0  0  0  0  0  0
    2.4321    1.1126    2.5486 C   0  0  0  0  0  0  0  0  0  0  0  0
    3.4378    1.6732    1.3313 C   0  0  0  0  0  0  0  0  0  0  0  0
    2.7301    2.5420    0.1829 C   0  0  0  0  0  0  0  0  0  0  0  0
    1.8016    1.8150   -0.5111 C   0  0  0  0  0  0  0  0  0  0  0  0
    4.6401    0.5297    0.8177 C   0  0  0  0  0  0  0  0  0  0  0  0
    5.7377    0.8198    1.2608 O   0  0  0  0  0  0  0  0  0  0  0  0
    4.5484   -0.7064   -0.1260 N   0  0  0  0  0  0  0  0  0  0  0  0
    3.4945   -1.3326   -1.3249 C   0  0  0  0  0  0  0  0  0  0  0  0
    2.1500   -0.2237   -2.3129 C   0  0  0  0  0  0  0  0  0  0  0  0
    0.4998   -0.8262   -2.6683 C   0  0  0  0  0  0  0  0  0  0  0  0
    0.0415   -2.4111   -2.3278 N   0  0  0  0  0  0  0  0  0  0  0  0
    1.0138   -3.5462   -1.5053 C   0  0  0  0  0  0  0  0  0  0  0  0
    2.8729   -2.8682   -0.7454 C   0  0  0  0  0  0  0  0  0  0  0  0
   -1.2721   -1.4679   -0.4013 N   0  0  0  0  0  0  0  0  0  0  0  0
    2.2870   -0.8411    0.5501 Cl  0  0  0  0  0  0  0  0  0  0  0  0
   -0.3194    0.8989   -0.9582 Cl  0  0  0  0  0  0  0  0  0  0  0  0
    1.2627   -2.4447    1.5042 H   0  0  0  0  0  0  0  0  0  0  0  0
    1.7421   -4.1624    0.4346 H   0  0  0  0  0  0  0  0  0  0  0  0
   -0.2277   -3.1168    0.8052 H   0  0  0  0  0  0  0  0  0  0  0  0
    1.4772   -1.7276   -1.3313 H   0  0  0  0  0  0  0  0  0  0  0  0
    0.2321    1.5815    1.2923 H   0  0  0  0  0  0  0  0  0  0  0  0
    0.6838   -0.7966    2.4279 H   0  0  0  0  0  0  0  0  0  0  0  0
    2.3576   -1.1284    2.6082 H   0  0  0  0  0  0  0  0  0  0  0  0
    3.0703    0.5745    3.1903 H   0  0  0  0  0  0  0  0  0  0  0  0
    1.7153    1.8599    2.7064 H   0  0  0  0  0  0  0  0  0  0  0  0
    3.8811    2.5172    1.8126 H   0  0  0  0  0  0  0  0  0  0  0  0
    3.4642    2.6389   -0.6566 H   0  0  0  0  0  0  0  0  0  0  0  0
    1.8085    3.0131    0.3152 H   0  0  0  0  0  0  0  0  0  0  0  0
    3.8147    1.0668   -1.8857 H   0  0  0  0  0  0  0  0  0  0  0  0
    1.2683    2.1042   -1.5607 H   0  0  0  0  0  0  0  0  0  0  0  0
    5.2592   -1.3911    0.0131 H   0  0  0  0  0  0  0  0  0  0  0  0
    2.2931    0.9918   -2.5951 H   0  0  0  0  0  0  0  0  0  0  0  0
   -0.0691    0.0147   -2.8832 H   0  0  0  0  0  0  0  0  0  0  0  0
    0.3975   -4.3426   -0.8887 H   0  0  0  0  0  0  0  0  0  0  0  0
    3.3026   -2.9310    0.4649 H   0  0  0  0  0  0  0  0  0  0  0  0
   -1.8289   -2.0743   -1.0475 H   0  0  0  0  0  0  0  0  0  0  0  0
   -1.5844   -1.2053    0.5347 H   0  0  0  0  0  0  0  0  0  0  0  0
    2.6571   -0.2427    0.9198 H   0  0  0  0  0  0  0  0  0  0  0  0
    2.8865    0.5229   -0.5296 H   0  0  0  0  0  0  0  0  0  0  0  0
  1 21  1  0  0  0  0
  1 22  1  0  0  0  0
  1 23  1  0  0  0  0
  2 18  1  0  0  0  0
  2 24  1  6  0  0  0
  2  3  1  0  0  0  0
  2  1  1  0  0  0  0
  3  4  1  0  0  0  0
  3  8  1  0  0  0  0
  3 25  1  0  0  0  0
  4  5  1  0  0  0  0
  4 26  1  0  0  0  0
  4 27  1  0  0  0  0
  5  6  1  0  0  0  0
  5 28  1  0  0  0  0
  5 29  1  0  0  0  0
  6  7  1  0  0  0  0
  6  9  1  0  0  0  0
  6 30  1  0  0  0  0
  7  8  1  0  0  0  0
  7 31  1  0  0  0  0
  7 32  1  0  0  0  0
  8 33  1  0  0  0  0
  8 34  1  0  0  0  0
  9 10  2  0  0  0  0
  9 11  1  0  0  0  0
 11 12  1  0  0  0  0
 11 35  1  0  0  0  0
 12 13  2  0  0  0  0
 12 17  1  0  0  0  0
 13 14  1  0  0  0  0
 13 36  1  0  0  0  0
 14 15  2  0  0  0  0
 14 37  1  0  0  0  0
 15 16  1  0  0  0  0
 16 17  2  0  0  0  0
 16 38  1  0  0  0  0
 17 39  1  0  0  0  0
 18 40  1  0  0  0  0
 18 41  1  0  0  0  0
 19 42  1  0  0  0  0
 20 43  1  0  0  0  0
M  END
$$$$

 OpenBabel05152416193D

 45 46  0  0  0  0  0  0  0  0999 V2000
    0.8145    0.6097    0.2449 C   0  0  0  0  0  0  0  0  0  0  0  0
    0.2748   -0.3593    1.0239 C   0  0  0  0  0  0  0  0  0  0  0  0
   -1.2215   -0.6389    1.0421 C   0  0  0  0  0  0  0  0  0  0  0  0
   -1.6937   -2.0398    0.7414 N   0  0  0  0  0  0  0  0  0  0  0  0
   -1.8692   -2.3071   -0.6946 C   0  0  0  0  0  0  0  0  0  0  0  0
   -3.1036   -3.1737   -0.9586 C   0  0  0  0  0  0  0  0  0  0  0  0
   -2.6879   -4.6065   -0.9027 C   0  0  0  0  0  0  0  0  0  0  0  0
   -2.6320   -5.3288   -2.1214 C   0  0  0  0  0  0  0  0  0  0  0  0
   -2.1945   -6.6445   -2.1670 C   0  0  0  0  0  0  0  0  0  0  0  0
   -1.7610   -7.2594   -0.9955 C   0  0  0  0  0  0  0  0  0  0  0  0
   -1.7464   -6.5229    0.1961 C   0  0  0  0  0  0  0  0  0  0  0  0
   -2.2758   -5.2016    0.3131 C   0  0  0  0  0  0  0  0  0  0  0  0
   -2.3745   -4.3779    1.6596 C   0  0  0  0  0  0  0  0  0  0  0  0
   -1.2966   -3.1939    1.6165 C   0  0  0  0  0  0  0  0  0  0  0  0
   -2.3603   -5.2409    2.9838 C   0  0  0  0  0  0  0  0  0  0  0  0
   -2.2234   -4.6454    4.2688 C   0  0  0  0  0  0  0  0  0  0  0  0
   -2.0762   -5.4403    5.4278 C   0  0  0  0  0  0  0  0  0  0  0  0
   -2.0765   -6.8326    5.3380 C   0  0  0  0  0  0  0  0  0  0  0  0
   -2.3576   -7.4281    4.1249 C   0  0  0  0  0  0  0  0  0  0  0  0
   -2.5565   -6.6478    2.9971 C   0  0  0  0  0  0  0  0  0  0  0  0
   -1.3691   -8.5470   -1.0125 O   0  0  0  0  0  0  0  0  0  0  0  0
   -2.1629   -7.3092   -3.3462 O   0  0  0  0  0  0  0  0  0  0  0  0
    1.7878   -1.9474   -1.3630 Br  0  0  0  0  0  0  0  0  0  0  0  0
    0.2179    1.2092   -0.4369 H   0  0  0  0  0  0  0  0  0  0  0  0
    1.8829    0.8317    0.2619 H   0  0  0  0  0  0  0  0  0  0  0  0
    0.9285   -0.9058    1.6960 H   0  0  0  0  0  0  0  0  0  0  0  0
   -1.6022   -0.3299    2.0337 H   0  0  0  0  0  0  0  0  0  0  0  0
   -1.6918    0.0744    0.3254 H   0  0  0  0  0  0  0  0  0  0  0  0
   -2.0575   -1.3551   -1.2311 H   0  0  0  0  0  0  0  0  0  0  0  0
   -0.9580   -2.7540   -1.1475 H   0  0  0  0  0  0  0  0  0  0  0  0
   -3.4501   -2.9484   -1.9883 H   0  0  0  0  0  0  0  0  0  0  0  0
   -3.9532   -2.9269   -0.2825 H   0  0  0  0  0  0  0  0  0  0  0  0
   -2.9190   -4.8545   -3.0535 H   0  0  0  0  0  0  0  0  0  0  0  0
   -1.2837   -7.0571    1.0033 H   0  0  0  0  0  0  0  0  0  0  0  0
   -3.3725   -3.8911    1.7467 H   0  0  0  0  0  0  0  0  0  0  0  0
   -0.3107   -3.6036    1.3057 H   0  0  0  0  0  0  0  0  0  0  0  0
   -1.1521   -2.7838    2.6344 H   0  0  0  0  0  0  0  0  0  0  0  0
   -2.2111   -3.5720    4.3943 H   0  0  0  0  0  0  0  0  0  0  0  0
   -1.9392   -4.9870    6.4006 H   0  0  0  0  0  0  0  0  0  0  0  0
   -1.9083   -7.4584    6.2060 H   0  0  0  0  0  0  0  0  0  0  0  0
   -2.4263   -8.5063    4.0379 H   0  0  0  0  0  0  0  0  0  0  0  0
   -2.8701   -7.2123    2.1507 H   0  0  0  0  0  0  0  0  0  0  0  0
   -1.1879   -9.0475   -0.1999 H   0  0  0  0  0  0  0  0  0  0  0  0
   -1.8278   -8.2133   -3.4275 H   0  0  0  0  0  0  0  0  0  0  0  0
    2.6298   -1.2987   -0.2537 H   0  0  0  0  0  0  0  0  0  0  0  0
  1  2  2  0  0  0  0
  1 24  1  0  0  0  0
  1 25  1  0  0  0  0
  2  3  1  0  0  0  0
  2 26  1  0  0  0  0
  3  4  1  0  0  0  0
  3 27  1  0  0  0  0
  3 28  1  0  0  0  0
  4  5  1  0  0  0  0
  4 14  1  0  0  0  0
  5  6  1  0  0  0  0
  5 29  1  0  0  0  0
  5 30  1  0  0  0  0
  6  7  1  0  0  0  0
  6 31  1  0  0  0  0
  6 32  1  0  0  0  0
  7  8  2  0  0  0  0
  7 12  1  0  0  0  0
  8  9  1  0  0  0  0
  8 33  1  0  0  0  0
  9 10  2  0  0  0  0
  9 22  1  0  0  0  0
 10 11  1  0  0  0  0
 10 21  1  0  0  0  0
 11 12  2  0  0  0  0
 11 34  1  0  0  0  0
 12 13  1  0  0  0  0
 13 14  1  0  0  0  0
 13 15  1  0  0  0  0
 13 35  1  0  0  0  0
 14 36  1  0  0  0  0
 14 37  1  0  0  0  0
 15 16  2  0  0  0  0
 15 20  1  0  0  0  0
 16 17  1  0  0  0  0
 16 38  1  0  0  0  0
 17 18  2  0  0  0  0
 17 39  1  0  0  0  0
 18 19  1  0  0  0  0
 18 40  1  0  0  0  0
 19 20  2  0  0  0  0
 19 41  1  0  0  0  0
 20 42  1  0  0  0  0
 21 43  1  0  0  0  0
 22 44  1  0  0  0  0
 23 45  1  0  0  0  0
M  END
$$$$

 OpenBabel05152416193D

109114  0  0  1  0  0  0  0  0999 V2000
   -0.0290    0.8830    0.0000 C   0  0  0  0  0  0  0  0  0  0  0  0
   -0.7510   -0.4660    0.0000 C   0  0  0  0  0  0  0  0  0  0  0  0
    0.7790   -0.4170    0.0000 C   0  0  0  0  0  0  0  0  0  0  0  0
   -1.8053   -1.1207    0.8776 C   0  0  0  0  0  0  0  0  0  0  0  0
   -2.9590   -0.4898    0.9596 N   0  0  0  0  0  0  0  0  0  0  0  0
   -3.9423   -1.0806    1.6997 C   0  0  0  0  0  0  0  0  0  0  0  0
   -5.1974   -0.4176    1.8173 C   0  0  0  0  0  0  0  0  0  0  0  0
   -6.2222   -0.9889    2.5320 C   0  0  0  0  0  0  0  0  0  0  0  0
   -6.0365   -2.2316    3.1524 C   0  0  0  0  0  0  0  0  0  0  0  0
   -4.8393   -2.8909    3.0710 C   0  0  0  0  0  0  0  0  0  0  0  0
   -3.7689   -2.3354    2.3477 C   0  0  0  0  0  0  0  0  0  0  0  0
   -2.5050   -2.9486    2.2200 C   0  0  0  0  0  0  0  0  0  0  0  0
   -1.5232   -2.3567    1.4871 C   0  0  0  0  0  0  0  0  0  0  0  0
   -0.1606   -3.0122    1.3315 C   0  0  0  0  0  0  0  0  0  0  0  0
    0.0913   -4.2078    1.9294 C   0  0  0  0  0  0  0  0  0  0  0  0
    1.4538   -4.8633    1.7738 C   0  0  1  0  0  0  0  0  0  0  0  0
    2.0491   -5.0273    3.0525 O   0  0  0  0  0  0  0  0  0  0  0  0
    1.2898   -6.2224    1.1132 C   0  0  0  0  0  0  0  0  0  0  0  0
    0.6526   -6.0469   -0.2556 C   0  0  1  0  0  0  0  0  0  0  0  0
    1.4835   -5.2257   -1.0627 O   0  0  0  0  0  0  0  0  0  0  0  0
    0.4885   -7.4061   -0.9161 C   0  0  0  0  0  0  0  0  0  0  0  0
   -0.4009   -8.2852   -0.0521 C   0  0  0  0  0  0  0  0  0  0  0  0
   -1.4898   -8.7430   -0.5211 O   0  0  0  0  0  0  0  0  0  0  0  0
   -0.0152   -8.5950    1.2789 O   0  5  0  0  0  0  0  0  0  0  0  0
   -2.2381   -4.2789    2.9054 C   0  0  0  0  0  0  0  0  0  0  0  0
   -2.9732   -5.4215    2.6276 C   0  0  0  0  0  0  0  0  0  0  0  0
   -2.6192   -6.6428    3.1793 C   0  0  0  0  0  0  0  0  0  0  0  0
   -1.5297   -6.6880    3.9662 C   0  0  0  0  0  0  0  0  0  0  0  0
   -0.7799   -5.6008    4.2599 C   0  0  0  0  0  0  0  0  0  0  0  0
   -1.1504   -4.3776    3.7234 C   0  0  0  0  0  0  0  0  0  0  0  0
   -1.1763   -7.8818    4.5062 F   0  0  0  0  0  0  0  0  0  0  0  0
   -0.0290    0.8830    0.0000 C   0  0  0  0  0  0  0  0  0  0  0  0
   -0.7510   -0.4660    0.0000 C   0  0  0  0  0  0  0  0  0  0  0  0
    0.7790   -0.4170    0.0000 C   0  0  0  0  0  0  0  0  0  0  0  0
   -1.8053   -1.1207    0.8776 C   0  0  0  0  0  0  0  0  0  0  0  0
   -2.9590   -0.4898    0.9596 N   0  0  0  0  0  0  0  0  0  0  0  0
   -3.9423   -1.0806    1.6997 C   0  0  0  0  0  0  0  0  0  0  0  0
   -5.1974   -0.4176    1.8173 C   0  0  0  0  0  0  0  0  0  0  0  0
   -6.2222   -0.9889    2.5320 C   0  0  0  0  0  0  0  0  0  0  0  0
   -6.0365   -2.2316    3.1524 C   0  0  0  0  0  0  0  0  0  0  0  0
   -4.8393   -2.8909    3.0710 C   0  0  0  0  0  0  0  0  0  0  0  0
   -3.7689   -2.3354    2.3477 C   0  0  0  0  0  0  0  0  0  0  0  0
   -2.5050   -2.9486    2.2200 C   0  0  0  0  0  0  0  0  0  0  0  0
   -1.5232   -2.3567    1.4871 C   0  0  0  0  0  0  0  0  0  0  0  0
   -0.1606   -3.0122    1.3315 C   0  0  0  0  0  0  0  0  0  0  0  0
    0.0913   -4.2078    1.9294 C   0  0  0  0  0  0  0  0  0  0  0  0
    1.4538   -4.8633    1.7738 C   0  0  1  0  0  0  0  0  0  0  0  0
    2.0491   -5.0273    3.0525 O   0  0  0  0  0  0  0  0  0  0  0  0
    1.2898   -6.2224    1.1132 C   0  0  0  0  0  0  0  0  0  0  0  0
    0.6526   -6.0469   -0.2556 C   0  0  1  0  0  0  0  0  0  0  0  0
    1.4835   -5.2257   -1.0627 O   0  0  0  0  0  0  0  0  0  0  0  0
    0.4885   -7.4061   -0.9161 C   0  0  0  0  0  0  0  0  0  0  0  0
   -0.4009   -8.2852   -0.0521 C   0  0  0  0  0  0  0  0  0  0  0  0
   -1.4898   -8.7430   -0.5211 O   0  0  0  0  0  0  0  0  0  0  0  0
   -0.0152   -8.5950    1.2789 O   0  5  0  0  0  0  0  0  0  0  0  0
   -2.2381   -4.2789    2.9054 C   0  0  0  0  0  0  0  0  0  0  0  0
   -2.9732   -5.4215    2.6276 C   0  0  0  0  0  0  0  0  0  0  0  0
   -2.6192   -6.6428    3.1793 C   0  0  0  0  0  0  0  0  0  0  0  0
   -1.5297   -6.6880    3.9662 C   0  0  0  0  0  0  0  0  0  0  0  0
   -0.7799   -5.6008    4.2599 C   0  0  0  0  0  0  0  0  0  0  0  0
   -1.1504   -4.3776    3.7234 C   0  0  0  0  0  0  0  0  0  0  0  0
   -1.1763   -7.8818    4.5062 F   0  0  0  0  0  0  0  0  0  0  0  0
    1.7461    1.0401    0.2221 Ca  0  2  0  0  0  0  0  0  0  0  0  0
   -0.0573    1.7562    0.6178 H   0  0  0  0  0  0  0  0  0  0  0  0
   -0.0490    1.5004   -0.8737 H   0  0  0  0  0  0  0  0  0  0  0  0
   -1.2758   -0.7919   -0.8737 H   0  0  0  0  0  0  0  0  0  0  0  0
    1.5494   -0.8292   -0.6177 H   0  0  0  0  0  0  0  0  0  0  0  0
    1.3237   -0.7085    0.8737 H   0  0  0  0  0  0  0  0  0  0  0  0
   -5.3431    0.5318    1.3459 H   0  0  0  0  0  0  0  0  0  0  0  0
   -7.1624   -0.4848    2.6149 H   0  0  0  0  0  0  0  0  0  0  0  0
   -6.8438   -2.6726    3.6989 H   0  0  0  0  0  0  0  0  0  0  0  0
   -4.7174   -3.8345    3.5607 H   0  0  0  0  0  0  0  0  0  0  0  0
    0.6004   -2.5331    0.7516 H   0  0  0  0  0  0  0  0  0  0  0  0
   -0.6698   -4.6869    2.5093 H   0  0  0  0  0  0  0  0  0  0  0  0
    2.0799   -4.2445    1.1656 H   0  0  0  0  0  0  0  0  0  0  0  0
    2.1570   -4.1331    3.4871 H   0  0  0  0  0  0  0  0  0  0  0  0
    2.2489   -6.6839    1.0037 H   0  0  0  0  0  0  0  0  0  0  0  0
    0.6636   -6.8413    1.7214 H   0  0  0  0  0  0  0  0  0  0  0  0
   -0.3066   -5.5855   -0.1460 H   0  0  0  0  0  0  0  0  0  0  0  0
    1.5915   -4.3315   -0.6281 H   0  0  0  0  0  0  0  0  0  0  0  0
    0.0400   -7.2825   -1.8797 H   0  0  0  0  0  0  0  0  0  0  0  0
    1.4477   -7.8675   -1.0257 H   0  0  0  0  0  0  0  0  0  0  0  0
   -3.8230   -5.3597    1.9803 H   0  0  0  0  0  0  0  0  0  0  0  0
   -3.1955   -7.5231    2.9849 H   0  0  0  0  0  0  0  0  0  0  0  0
    0.0796   -5.6833    4.8919 H   0  0  0  0  0  0  0  0  0  0  0  0
   -0.5784   -3.5029    3.9528 H   0  0  0  0  0  0  0  0  0  0  0  0
   -0.0573    1.7562    0.6178 H   0  0  0  0  0  0  0  0  0  0  0  0
   -0.0490    1.5004   -0.8737 H   0  0  0  0  0  0  0  0  0  0  0  0
   -1.2758   -0.7919   -0.8737 H   0  0  0  0  0  0  0  0  0  0  0  0
    1.5494   -0.8292   -0.6177 H   0  0  0  0  0  0  0  0  0  0  0  0
    1.3237   -0.7085    0.8737 H   0  0  0  0  0  0  0  0  0  0  0  0
   -5.3431    0.5318    1.3459 H   0  0  0  0  0  0  0  0  0  0  0  0
   -7.1624   -0.4848    2.6149 H   0  0  0  0  0  0  0  0  0  0  0  0
   -6.8438   -2.6726    3.6989 H   0  0  0  0  0  0  0  0  0  0  0  0
   -4.7174   -3.8345    3.5607 H   0  0  0  0  0  0  0  0  0  0  0  0
    0.6004   -2.5331    0.7516 H   0  0  0  0  0  0  0  0  0  0  0  0
   -0.6698   -4.6869    2.5093 H   0  0  0  0  0  0  0  0  0  0  0  0
    2.0799   -4.2445    1.1656 H   0  0  0  0  0  0  0  0  0  0  0  0
    2.1570   -4.1331    3.4871 H   0  0  0  0  0  0  0  0  0  0  0  0
    2.2489   -6.6839    1.0037 H   0  0  0  0  0  0  0  0  0  0  0  0
    0.6636   -6.8413    1.7214 H   0  0  0  0  0  0  0  0  0  0  0  0
   -0.3066   -5.5855   -0.1460 H   0  0  0  0  0  0  0  0  0  0  0  0
    1.5915   -4.3315   -0.6281 H   0  0  0  0  0  0  0  0  0  0  0  0
    0.0400   -7.2825   -1.8797 H   0  0  0  0  0  0  0  0  0  0  0  0
    1.4477   -7.8675   -1.0257 H   0  0  0  0  0  0  0  0  0  0  0  0
   -3.8230   -5.3597    1.9803 H   0  0  0  0  0  0  0  0  0  0  0  0
   -3.1955   -7.5231    2.9849 H   0  0  0  0  0  0  0  0  0  0  0  0
    0.0796   -5.6833    4.8919 H   0  0  0  0  0  0  0  0  0  0  0  0
   -0.5784   -3.5029    3.9528 H   0  0  0  0  0  0  0  0  0  0  0  0
  1  2  1  0  0  0  0
  1  3  1  0  0  0  0
  1 64  1  0  0  0  0
  1 65  1  0  0  0  0
  2  3  1  0  0  0  0
  2  4  1  0  0  0  0
  2 66  1  0  0  0  0
  3 67  1  0  0  0  0
  3 68  1  0  0  0  0
  4  5  2  0  0  0  0
  4 13  1  0  0  0  0
  5  6  1  0  0  0  0
  6  7  2  0  0  0  0
  6 11  1  0  0  0  0
  7  8  1  0  0  0  0
  7 69  1  0  0  0  0
  8  9  2  0  0  0  0
  8 70  1  0  0  0  0
  9 10  1  0  0  0  0
  9 71  1  0  0  0  0
 10 11  2  0  0  0  0
 10 72  1  0  0  0  0
 11 12  1  0  0  0  0
 12 13  2  0  0  0  0
 12 25  1  0  0  0  0
 13 14  1  0  0  0  0
 14 15  2  0  0  0  0
 14 73  1  0  0  0  0
 15 16  1  0  0  0  0
 15 74  1  0  0  0  0
 16 17  1  0  0  0  0
 16 18  1  0  0  0  0
 16 75  1  6  0  0  0
 17 76  1  0  0  0  0
 18 19  1  0  0  0  0
 18 77  1  0  0  0  0
 18 78  1  0  0  0  0
 19 20  1  0  0  0  0
 19 21  1  0  0  0  0
 19 79  1  1  0  0  0
 20 80  1  0  0  0  0
 21 22  1  0  0  0  0
 21 81  1  0  0  0  0
 21 82  1  0  0  0  0
 22 23  2  0  0  0  0
 22 24  1  0  0  0  0
 25 26  2  0  0  0  0
 25 30  1  0  0  0  0
 26 27  1  0  0  0  0
 26 83  1  0  0  0  0
 27 28  2  0  0  0  0
 27 84  1  0  0  0  0
 28 29  1  0  0  0  0
 28 31  1  0  0  0  0
 29 30  2  0  0  0  0
 29 85  1  0  0  0  0
 30 86  1  0  0  0  0
 32 33  1  0  0  0  0
 32 34  1  0  0  0  0
 32 87  1  0  0  0  0
 32 88  1  0  0  0  0
 33 34  1  0  0  0  0
 33 35  1  0  0  0  0
 33 89  1  0  0  0  0
 34 90  1  0  0  0  0
 34 91  1  0  0  0  0
 35 36  2  0  0  0  0
 35 44  1  0  0  0  0
 36 37  1  0  0  0  0
 37 38  2  0  0  0  0
 37 42  1  0  0  0  0
 38 39  1  0  0  0  0
 38 92  1  0  0  0  0
 39 40  2  0  0  0  0
 39 93  1  0  0  0  0
 40 41  1  0  0  0  0
 40 94  1  0  0  0  0
 41 42  2  0  0  0  0
 41 95  1  0  0  0  0
 42 43  1  0  0  0  0
 43 44  2  0  0  0  0
 43 56  1  0  0  0  0
 44 45  1  0  0  0  0
 45 46  2  0  0  0  0
 45 96  1  0  0  0  0
 46 47  1  0  0  0  0
 46 97  1  0  0  0  0
 47 48  1  0  0  0  0
 47 49  1  0  0  0  0
 47 98  1  6  0  0  0
 48 99  1  0  0  0  0
 49 50  1  0  0  0  0
 49100  1  0  0  0  0
 49101  1  0  0  0  0
 50 51  1  0  0  0  0
 50 52  1  0  0  0  0
 50102  1  1  0  0  0
 51103  1  0  0  0  0
 52 53  1  0  0  0  0
 52104  1  0  0  0  0
 52105  1  0  0  0  0
 53 54  2  0  0  0  0
 53 55  1  0  0  0  0
 56 57  2  0  0  0  0
 56 61  1  0  0  0  0
 57 58  1  0  0  0  0
 57106  1  0  0  0  0
 58 59  2  0  0  0  0
 58107  1  0  0  0  0
 59 60  1  0  0  0  0
 59 62  1  0  0  0  0
 60 61  2  0  0  0  0
 60108  1  0  0  0  0
 61109  1  0  0  0  0
M  CHG  3  24  -1  55  -1  63   2
M  END
$$$$

 OpenBabel05152416193D

 49 51  0  0  0  0  0  0  0  0999 V2000
    1.4157   -0.2356   -0.3173 C   0  0  0  0  0  0  0  0  0  0  0  0
    0.9208    1.0724   -0.3775 C   0  0  0  0  0  0  0  0  0  0  0  0
   -0.4620    1.2897   -0.3876 C   0  0  0  0  0  0  0  0  0  0  0  0
   -1.3622    0.2214   -0.3105 C   0  0  0  0  0  0  0  0  0  0  0  0
   -0.8543   -1.0935   -0.2516 C   0  0  0  0  0  0  0  0  0  0  0  0
    0.5326   -1.3125   -0.2574 C   0  0  0  0  0  0  0  0  0  0  0  0
   -2.8592    0.4750   -0.3201 C   0  0  0  0  0  0  0  0  0  0  0  0
   -3.4533    1.4632    1.1686 P   0  3  0  0  0  0  0  0  0  0  0  0
   -2.5196    3.0571    1.3784 C   0  0  0  0  0  0  0  0  0  0  0  0
   -1.2777    3.0959    2.0347 C   0  0  0  0  0  0  0  0  0  0  0  0
   -0.6374    4.3256    2.2458 C   0  0  0  0  0  0  0  0  0  0  0  0
   -1.2575    5.5200    1.8574 C   0  0  0  0  0  0  0  0  0  0  0  0
   -2.4700    5.4774    1.1822 C   0  0  0  0  0  0  0  0  0  0  0  0
   -3.0505    4.2571    0.8989 C   0  0  0  0  0  0  0  0  0  0  0  0
   -5.3247    1.7257    1.0772 C   0  0  0  0  0  0  0  0  0  0  0  0
   -5.9667    2.9862    1.1358 C   0  0  0  0  0  0  0  0  0  0  0  0
   -7.3401    3.1236    1.0438 C   0  0  0  0  0  0  0  0  0  0  0  0
   -8.1395    1.9985    0.9496 C   0  0  0  0  0  0  0  0  0  0  0  0
   -7.5536    0.7334    0.9355 C   0  0  0  0  0  0  0  0  0  0  0  0
   -6.1546    0.5903    0.9856 C   0  0  0  0  0  0  0  0  0  0  0  0
   -3.2920    0.4590    2.7162 C   0  0  0  0  0  0  0  0  0  0  0  0
   -3.0383   -0.9242    2.6798 C   0  0  0  0  0  0  0  0  0  0  0  0
   -3.0564   -1.6744    3.8616 C   0  0  0  0  0  0  0  0  0  0  0  0
   -3.2972   -1.0461    5.0865 C   0  0  0  0  0  0  0  0  0  0  0  0
   -3.5060    0.3344    5.1319 C   0  0  0  0  0  0  0  0  0  0  0  0
   -3.5127    1.0816    3.9512 C   0  0  0  0  0  0  0  0  0  0  0  0
    0.9543   -0.1909    2.7716 Cl  0  5  0  0  0  0  0  0  0  0  0  0
    2.4872   -0.4072   -0.3036 H   0  0  0  0  0  0  0  0  0  0  0  0
    1.5958    1.9150   -0.4125 H   0  0  0  0  0  0  0  0  0  0  0  0
   -0.8204    2.3062   -0.4563 H   0  0  0  0  0  0  0  0  0  0  0  0
   -1.5180   -1.9416   -0.1990 H   0  0  0  0  0  0  0  0  0  0  0  0
    0.9148   -2.3256   -0.2022 H   0  0  0  0  0  0  0  0  0  0  0  0
   -3.1131    1.0394   -1.2393 H   0  0  0  0  0  0  0  0  0  0  0  0
   -3.4227   -0.4806   -0.3363 H   0  0  0  0  0  0  0  0  0  0  0  0
   -0.8078    2.1802    2.3683 H   0  0  0  0  0  0  0  0  0  0  0  0
    0.3298    4.3595    2.7261 H   0  0  0  0  0  0  0  0  0  0  0  0
   -0.7998    6.4785    2.0469 H   0  0  0  0  0  0  0  0  0  0  0  0
   -2.9672    6.3825    0.8568 H   0  0  0  0  0  0  0  0  0  0  0  0
   -3.9122    4.2830    0.2828 H   0  0  0  0  0  0  0  0  0  0  0  0
   -5.5060    3.9239    1.2781 H   0  0  0  0  0  0  0  0  0  0  0  0
   -7.7738    4.1151    1.0664 H   0  0  0  0  0  0  0  0  0  0  0  0
   -9.2114    2.1309    0.9079 H   0  0  0  0  0  0  0  0  0  0  0  0
   -8.1896   -0.1392    0.8876 H   0  0  0  0  0  0  0  0  0  0  0  0
   -5.7237   -0.4007    0.9723 H   0  0  0  0  0  0  0  0  0  0  0  0
   -2.8708   -1.4389    1.7467 H   0  0  0  0  0  0  0  0  0  0  0  0
   -2.9031   -2.7462    3.8287 H   0  0  0  0  0  0  0  0  0  0  0  0
   -3.3276   -1.6290    5.9982 H   0  0  0  0  0  0  0  0  0  0  0  0
   -3.6843    0.8239    6.0803 H   0  0  0  0  0  0  0  0  0  0  0  0
   -3.6989    2.1462    3.9941 H   0  0  0  0  0  0  0  0  0  0  0  0
  1  2  2  0  0  0  0
  1  6  1  0  0  0  0
  1 28  1  0  0  0  0
  2  3  1  0  0  0  0
  2 29  1  0  0  0  0
  3  4  2  0  0  0  0
  3 30  1  0  0  0  0
  4  5  1  0  0  0  0
  4  7  1  0  0  0  0
  5  6  2  0  0  0  0
  5 31  1  0  0  0  0
  6 32  1  0  0  0  0
  7  8  1  0  0  0  0
  7 33  1  0  0  0  0
  7 34  1  0  0  0  0
  8  9  1  0  0  0  0
  8 15  1  0  0  0  0
  8 21  1  0  0  0  0
  9 10  2  0  0  0  0
  9 14  1  0  0  0  0
 10 11  1  0  0  0  0
 10 35  1  0  0  0  0
 11 12  2  0  0  0  0
 11 36  1  0  0  0  0
 12 13  1  0  0  0  0
 12 37  1  0  0  0  0
 13 14  2  0  0  0  0
 13 38  1  0  0  0  0
 14 39  1  0  0  0  0
 15 16  2  0  0  0  0
 15 20  1  0  0  0  0
 16 17  1  0  0  0  0
 16 40  1  0  0  0  0
 17 18  2  0  0  0  0
 17 41  1  0  0  0  0
 18 19  1  0  0  0  0
 18 42  1  0  0  0  0
 19 20  2  0  0  0  0
 19 43  1  0  0  0  0
 20 44  1  0  0  0  0
 21 22  2  0  0  0  0
 21 26  1  0  0  0  0
 22 23  1  0  0  0  0
 22 45  1  0  0  0  0
 23 24  2  0  0  0  0
 23 46  1  0  0  0  0
 24 25  1  0  0  0  0
 24 47  1  0  0  0  0
 25 26  2  0  0  0  0
 25 48  1  0  0  0  0
 26 49  1  0  0  0  0
M  CHG  2   8   1  27  -1
M  END
$$$$

 OpenBabel05152416193D

 67 67  0  0  1  0  0  0  0  0999 V2000
    3.1863    2.1946    6.1868 C   0  0  0  0  0  0  0  0  0  0  0  0
    3.1611    3.0029    4.8490 C   0  0  0  0  0  0  0  0  0  0  0  0
    3.2286    4.4820    5.1537 C   0  0  0  0  0  0  0  0  0  0  0  0
    4.2484    2.4605    3.9606 C   0  0  0  0  0  0  0  0  0  0  0  0
    4.1217    1.2314    3.2455 C   0  0  0  0  0  0  0  0  0  0  0  0
    5.2456    0.8012    2.4512 C   0  0  0  0  0  0  0  0  0  0  0  0
    6.4055    1.6119    2.3993 C   0  0  0  0  0  0  0  0  0  0  0  0
    6.4388    2.8224    3.1192 C   0  0  0  0  0  0  0  0  0  0  0  0
    5.3643    3.1836    3.8636 N   0  0  0  0  0  0  0  0  0  0  0  0
    7.5959    3.7823    3.1069 C   0  0  0  0  0  0  0  0  0  0  0  0
    7.1423    5.1302    2.5385 C   0  0  0  0  0  0  0  0  0  0  0  0
    8.1520    3.9252    4.5179 C   0  0  0  0  0  0  0  0  0  0  0  0
    7.5887    1.2619    1.4982 C   0  0  0  0  0  0  0  0  0  0  0  0
    7.8168    2.2744    0.5355 O   0  0  0  0  0  0  0  0  0  0  0  0
    6.6983    2.4047   -0.3190 C   0  0  0  0  0  0  0  0  0  0  0  0
    5.2091   -0.4737    1.6584 C   0  0  0  0  0  0  0  0  0  0  0  0
    4.2638   -0.6577    0.6443 C   0  0  0  0  0  0  0  0  0  0  0  0
    4.2158   -1.8380   -0.1013 C   0  0  0  0  0  0  0  0  0  0  0  0
    5.1431   -2.8508    0.1481 C   0  0  0  0  0  0  0  0  0  0  0  0
    6.1124   -2.6767    1.1404 C   0  0  0  0  0  0  0  0  0  0  0  0
    6.1443   -1.4984    1.8948 C   0  0  0  0  0  0  0  0  0  0  0  0
    5.1071   -3.9966   -0.5760 F   0  0  0  0  0  0  0  0  0  0  0  0
    2.8690    0.4064    3.2690 C   0  0  0  0  0  0  0  0  0  0  0  0
    1.7718    0.5632    4.0533 C   0  0  0  0  0  0  0  0  0  0  0  0
    0.5390   -0.1740    3.9105 C   0  0  2  0  0  0  0  0  0  0  0  0
    0.7858   -1.6779    3.7975 C   0  0  0  0  0  0  0  0  0  0  0  0
   -0.1871   -2.3660    2.8498 C   0  0  2  0  0  0  0  0  0  0  0  0
    0.3068   -2.2889    1.3621 C   0  0  0  0  0  0  0  0  0  0  0  0
   -0.5537   -1.4841    0.4300 C   0  0  0  0  0  0  0  0  0  0  0  0
   -0.0943   -0.5460   -0.1936 O   0  0  0  0  0  0  0  0  0  0  0  0
   -1.8390   -1.8289    0.2429 O   0  5  0  0  0  0  0  0  0  0  0  0
   -1.5306   -1.9862    3.0707 O   0  0  0  0  0  0  0  0  0  0  0  0
   -0.2075    0.4645    2.9099 O   0  0  0  0  0  0  0  0  0  0  0  0
    1.7808    0.7780   -0.3346 Na  0  3  0  0  0  0  0  0  0  0  0  0
    4.1083    2.4002    6.7568 H   0  0  0  0  0  0  0  0  0  0  0  0
    3.2121    1.0872    6.0535 H   0  0  0  0  0  0  0  0  0  0  0  0
    2.2860    2.4289    6.7943 H   0  0  0  0  0  0  0  0  0  0  0  0
    2.2408    3.0064    4.2257 H   0  0  0  0  0  0  0  0  0  0  0  0
    4.1407    4.7166    5.7287 H   0  0  0  0  0  0  0  0  0  0  0  0
    3.1966    5.0521    4.1992 H   0  0  0  0  0  0  0  0  0  0  0  0
    2.3188    4.7429    5.7430 H   0  0  0  0  0  0  0  0  0  0  0  0
    8.4312    3.4248    2.4825 H   0  0  0  0  0  0  0  0  0  0  0  0
    6.3509    5.5842    3.1746 H   0  0  0  0  0  0  0  0  0  0  0  0
    8.0051    5.8234    2.4841 H   0  0  0  0  0  0  0  0  0  0  0  0
    6.7336    4.9921    1.5130 H   0  0  0  0  0  0  0  0  0  0  0  0
    8.4627    2.9244    4.8909 H   0  0  0  0  0  0  0  0  0  0  0  0
    9.0373    4.5911    4.4992 H   0  0  0  0  0  0  0  0  0  0  0  0
    7.3855    4.3448    5.2046 H   0  0  0  0  0  0  0  0  0  0  0  0
    8.4824    1.1639    2.1498 H   0  0  0  0  0  0  0  0  0  0  0  0
    7.5235    0.3002    0.9641 H   0  0  0  0  0  0  0  0  0  0  0  0
    6.4923    1.4573   -0.8616 H   0  0  0  0  0  0  0  0  0  0  0  0
    5.7951    2.7557    0.2290 H   0  0  0  0  0  0  0  0  0  0  0  0
    6.9205    3.1939   -1.0622 H   0  0  0  0  0  0  0  0  0  0  0  0
    3.5749    0.1329    0.4447 H   0  0  0  0  0  0  0  0  0  0  0  0
    3.4650   -1.9627   -0.8725 H   0  0  0  0  0  0  0  0  0  0  0  0
    6.8402   -3.4542    1.3282 H   0  0  0  0  0  0  0  0  0  0  0  0
    6.8964   -1.3770    2.6628 H   0  0  0  0  0  0  0  0  0  0  0  0
    2.8163   -0.4001    2.5682 H   0  0  0  0  0  0  0  0  0  0  0  0
    1.5756    1.2601    4.7986 H   0  0  0  0  0  0  0  0  0  0  0  0
   -0.0658   -0.0363    4.8421 H   0  0  0  0  0  0  0  0  0  0  0  0
    1.8051   -1.9754    3.4696 H   0  0  0  0  0  0  0  0  0  0  0  0
    0.7880   -2.0734    4.8371 H   0  0  0  0  0  0  0  0  0  0  0  0
   -0.1001   -3.4292    3.1350 H   0  0  0  0  0  0  0  0  0  0  0  0
    1.3731   -1.9531    1.3039 H   0  0  0  0  0  0  0  0  0  0  0  0
    0.3224   -3.3200    0.9610 H   0  0  0  0  0  0  0  0  0  0  0  0
   -1.7205   -1.1289    2.6077 H   0  0  0  0  0  0  0  0  0  0  0  0
    0.2993    0.4375    2.0672 H   0  0  0  0  0  0  0  0  0  0  0  0
  1  2  1  0  0  0  0
  1 35  1  0  0  0  0
  1 36  1  0  0  0  0
  1 37  1  0  0  0  0
  2  3  1  0  0  0  0
  2  4  1  0  0  0  0
  2 38  1  0  0  0  0
  3 39  1  0  0  0  0
  3 40  1  0  0  0  0
  3 41  1  0  0  0  0
  4  5  2  0  0  0  0
  4  9  1  0  0  0  0
  5  6  1  0  0  0  0
  5 23  1  0  0  0  0
  6  7  2  0  0  0  0
  6 16  1  0  0  0  0
  7  8  1  0  0  0  0
  7 13  1  0  0  0  0
  8  9  2  0  0  0  0
  8 10  1  0  0  0  0
 10 11  1  0  0  0  0
 10 12  1  0  0  0  0
 10 42  1  0  0  0  0
 11 43  1  0  0  0  0
 11 44  1  0  0  0  0
 11 45  1  0  0  0  0
 12 46  1  0  0  0  0
 12 47  1  0  0  0  0
 12 48  1  0  0  0  0
 13 14  1  0  0  0  0
 13 49  1  0  0  0  0
 13 50  1  0  0  0  0
 14 15  1  0  0  0  0
 15 51  1  0  0  0  0
 15 52  1  0  0  0  0
 15 53  1  0  0  0  0
 16 17  2  0  0  0  0
 16 21  1  0  0  0  0
 17 18  1  0  0  0  0
 17 54  1  0  0  0  0
 18 19  2  0  0  0  0
 18 55  1  0  0  0  0
 19 20  1  0  0  0  0
 19 22  1  0  0  0  0
 20 21  2  0  0  0  0
 20 56  1  0  0  0  0
 21 57  1  0  0  0  0
 23 24  2  0  0  0  0
 23 58  1  0  0  0  0
 24 59  1  0  0  0  0
 25 33  1  0  0  0  0
 25 60  1  1  0  0  0
 25 26  1  0  0  0  0
 25 24  1  0  0  0  0
 26 61  1  0  0  0  0
 26 62  1  0  0  0  0
 27 32  1  0  0  0  0
 27 63  1  1  0  0  0
 27 28  1  0  0  0  0
 27 26  1  0  0  0  0
 28 29  1  0  0  0  0
 28 64  1  0  0  0  0
 28 65  1  0  0  0  0
 29 30  2  0  0  0  0
 29 31  1  0  0  0  0
 32 66  1  0  0  0  0
 33 67  1  0  0  0  0
M  CHG  2  31  -1  34   1
M  END
$$$$

 OpenBabel05152416193D

 13 12  0  0  0  0  0  0  0  0999 V2000
   -0.6260    1.2056   -0.1931 C   0  0  0  0  0  0  0  0  0  0  0  0
    0.7777    1.2039   -0.2244 C   0  0  0  0  0  0  0  0  0  0  0  0
    1.4808   -0.0129   -0.2293 C   0  0  0  0  0  0  0  0  0  0  0  0
    0.7750   -1.2321   -0.2033 C   0  0  0  0  0  0  0  0  0  0  0  0
   -0.6330   -1.2275   -0.1712 C   0  0  0  0  0  0  0  0  0  0  0  0
   -1.3300   -0.0085   -0.1660 C   0  0  0  0  0  0  0  0  0  0  0  0
   -3.0914    0.0204   -0.0788 Cl  0  0  0  0  0  0  0  0  0  0  0  0
   -1.5217   -2.7509   -0.0942 Cl  0  0  0  0  0  0  0  0  0  0  0  0
    1.6533   -2.7619   -0.1620 Cl  0  0  0  0  0  0  0  0  0  0  0  0
    3.2457   -0.0125   -0.2144 Cl  0  0  0  0  0  0  0  0  0  0  0  0
    1.6393    2.7426   -0.1986 Cl  0  0  0  0  0  0  0  0  0  0  0  0
   -1.2955    2.3695   -0.1608 O   0  5  0  0  0  0  0  0  0  0  0  0
    0.2785    0.1569    2.1765 Na  0  3  0  0  0  0  0  0  0  0  0  0
  1  2  2  0  0  0  0
  1  6  1  0  0  0  0
  1 12  1  0  0  0  0
  2  3  1  0  0  0  0
  2 11  1  0  0  0  0
  3  4  2  0  0  0  0
  3 10  1  0  0  0  0
  4  5  1  0  0  0  0
  4  9  1  0  0  0  0
  5  6  2  0  0  0  0
  5  8  1  0  0  0  0
  6  7  1  0  0  0  0
M  CHG  2  12  -1  13   1
M  END
$$$$

 OpenBabel05152416193D

 36 36  0  0  0  0  0  0  0  0999 V2000
    0.9833    0.1189   -0.1206 C   0  0  0  0  0  0  0  0  0  0  0  0
    0.4576    1.3009    0.7388 C   0  0  0  0  0  0  0  0  0  0  0  0
    0.9381    2.5906    0.0421 C   0  0  0  0  0  0  0  0  0  0  0  0
   -1.0771    1.2722    0.7739 C   0  0  0  0  0  0  0  0  0  0  0  0
    0.9625    1.2089    2.1884 C   0  0  0  0  0  0  0  0  0  0  0  0
    1.0534   -0.0054    2.7731 C   0  0  0  0  0  0  0  0  0  0  0  0
    1.5340   -0.1798    4.1341 C   0  0  0  0  0  0  0  0  0  0  0  0
    1.6128   -1.3280    4.5451 O   0  0  0  0  0  0  0  0  0  0  0  0
    1.9099    1.0115    4.9645 C   0  0  0  0  0  0  0  0  0  0  0  0
    1.7901    2.2320    4.3975 C   0  0  0  0  0  0  0  0  0  0  0  0
    1.3278    2.4034    3.0222 C   0  0  0  0  0  0  0  0  0  0  0  0
    1.2264    3.5483    2.6093 O   0  0  0  0  0  0  0  0  0  0  0  0
    2.4132    0.9316    6.4110 C   0  0  0  0  0  0  0  0  0  0  0  0
    3.8192    1.5639    6.4934 C   0  0  0  0  0  0  0  0  0  0  0  0
    1.4325    1.6922    7.3280 C   0  0  0  0  0  0  0  0  0  0  0  0
    2.5131   -0.5188    6.9158 C   0  0  0  0  0  0  0  0  0  0  0  0
    0.6495    0.2208   -1.1721 H   0  0  0  0  0  0  0  0  0  0  0  0
    0.5897   -0.8644    0.2060 H   0  0  0  0  0  0  0  0  0  0  0  0
    2.0944    0.0837   -0.0901 H   0  0  0  0  0  0  0  0  0  0  0  0
    0.6354    2.5975   -1.0231 H   0  0  0  0  0  0  0  0  0  0  0  0
    0.4828    3.4999    0.4756 H   0  0  0  0  0  0  0  0  0  0  0  0
    2.0487    2.6547    0.1005 H   0  0  0  0  0  0  0  0  0  0  0  0
   -1.4411    0.3303    1.2406 H   0  0  0  0  0  0  0  0  0  0  0  0
   -1.4592    2.1237    1.3804 H   0  0  0  0  0  0  0  0  0  0  0  0
   -1.4930    1.3488   -0.2509 H   0  0  0  0  0  0  0  0  0  0  0  0
    0.7891   -0.9190    2.2650 H   0  0  0  0  0  0  0  0  0  0  0  0
    2.0345    3.1361    4.9449 H   0  0  0  0  0  0  0  0  0  0  0  0
    3.8089    2.6364    6.2060 H   0  0  0  0  0  0  0  0  0  0  0  0
    4.2132    1.5016    7.5279 H   0  0  0  0  0  0  0  0  0  0  0  0
    4.5174    1.0358    5.8073 H   0  0  0  0  0  0  0  0  0  0  0  0
    0.4133    1.2547    7.2430 H   0  0  0  0  0  0  0  0  0  0  0  0
    1.7634    1.6330    8.3846 H   0  0  0  0  0  0  0  0  0  0  0  0
    1.3633    2.7672    7.0588 H   0  0  0  0  0  0  0  0  0  0  0  0
    1.5102   -1.0004    6.8947 H   0  0  0  0  0  0  0  0  0  0  0  0
    3.2301   -1.0921    6.2863 H   0  0  0  0  0  0  0  0  0  0  0  0
    2.8788   -0.5603    7.9588 H   0  0  0  0  0  0  0  0  0  0  0  0
  1  2  1  0  0  0  0
  1 17  1  0  0  0  0
  1 18  1  0  0  0  0
  1 19  1  0  0  0  0
  2  3  1  0  0  0  0
  2  4  1  0  0  0  0
  2  5  1  0  0  0  0
  3 20  1  0  0  0  0
  3 21  1  0  0  0  0
  3 22  1  0  0  0  0
  4 23  1  0  0  0  0
  4 24  1  0  0  0  0
  4 25  1  0  0  0  0
  5  6  2  0  0  0  0
  5 11  1  0  0  0  0
  6  7  1  0  0  0  0
  6 26  1  0  0  0  0
  7  8  2  0  0  0  0
  7  9  1  0  0  0  0
  9 10  2  0  0  0  0
  9 13  1  0  0  0  0
 10 11  1  0  0  0  0
 10 27  1  0  0  0  0
 11 12  2  0  0  0  0
 13 14  1  0  0  0  0
 13 15  1  0  0  0  0
 13 16  1  0  0  0  0
 14 28  1  0  0  0  0
 14 29  1  0  0  0  0
 14 30  1  0  0  0  0
 15 31  1  0  0  0  0
 15 32  1  0  0  0  0
 15 33  1  0  0  0  0
 16 34  1  0  0  0  0
 16 35  1  0  0  0  0
 16 36  1  0  0  0  0
M  END
$$$$

 OpenBabel05152416193D

 30 30  0  0  0  0  0  0  0  0999 V2000
    2.6445    0.9350    0.0180 C   0  0  0  0  0  0  0  0  0  0  0  0
    1.2616    0.3549    0.0036 C   0  0  0  0  0  0  0  0  0  0  0  0
    1.2429   -1.0284    0.0066 C   0  0  0  0  0  0  0  0  0  0  0  0
    0.0800   -1.7914   -0.0001 C   0  0  0  0  0  0  0  0  0  0  0  0
   -1.1427   -1.0936   -0.0040 C   0  0  0  0  0  0  0  0  0  0  0  0
   -1.1763    0.3287   -0.0078 C   0  0  0  0  0  0  0  0  0  0  0  0
    0.0406    1.0848   -0.0082 C   0  0  0  0  0  0  0  0  0  0  0  0
   -0.1054    2.9301   -0.0122 S   0  0  0  0  0  0  0  0  0  0  0  0
    1.5842    3.6486   -0.0723 C   0  0  0  0  0  0  0  0  0  0  0  0
   -2.5207    1.0262   -0.0088 C   0  0  0  0  0  0  0  0  0  0  0  0
    0.1188   -3.1702   -0.0020 O   0  0  0  0  0  0  0  0  0  0  0  0
    1.2169   -4.0130   -0.0084 C   0  0  0  0  0  0  0  0  0  0  0  0
    2.3612   -3.5820   -0.0096 O   0  0  0  0  0  0  0  0  0  0  0  0
    1.0960   -5.3585   -0.0153 N   0  0  0  0  0  0  0  0  0  0  0  0
   -0.1582   -6.0618   -0.0198 C   0  0  0  0  0  0  0  0  0  0  0  0
    2.8173    1.4818   -0.9204 H   0  0  0  0  0  0  0  0  0  0  0  0
    2.7896    1.4842    0.9608 H   0  0  0  0  0  0  0  0  0  0  0  0
    3.4568    0.1789    0.0283 H   0  0  0  0  0  0  0  0  0  0  0  0
    2.1953   -1.4775    0.0157 H   0  0  0  0  0  0  0  0  0  0  0  0
   -2.0730   -1.6537   -0.0051 H   0  0  0  0  0  0  0  0  0  0  0  0
    2.1569    3.4469    0.8521 H   0  0  0  0  0  0  0  0  0  0  0  0
    2.1048    3.4219   -1.0229 H   0  0  0  0  0  0  0  0  0  0  0  0
    1.5076    4.7502   -0.0792 H   0  0  0  0  0  0  0  0  0  0  0  0
   -2.6168    1.6753    0.8884 H   0  0  0  0  0  0  0  0  0  0  0  0
   -2.6266    1.6542   -0.9194 H   0  0  0  0  0  0  0  0  0  0  0  0
   -3.3679    0.3070    0.0062 H   0  0  0  0  0  0  0  0  0  0  0  0
    1.9576   -5.9262   -0.0189 H   0  0  0  0  0  0  0  0  0  0  0  0
   -0.1950   -6.6995   -0.9270 H   0  0  0  0  0  0  0  0  0  0  0  0
   -0.1973   -6.7083    0.8809 H   0  0  0  0  0  0  0  0  0  0  0  0
   -1.0212   -5.3692   -0.0181 H   0  0  0  0  0  0  0  0  0  0  0  0
  1  2  1  0  0  0  0
  1 16  1  0  0  0  0
  1 17  1  0  0  0  0
  1 18  1  0  0  0  0
  2  3  2  0  0  0  0
  2  7  1  0  0  0  0
  3  4  1  0  0  0  0
  3 19  1  0  0  0  0
  4  5  2  0  0  0  0
  4 11  1  0  0  0  0
  5  6  1  0  0  0  0
  5 20  1  0  0  0  0
  6  7  2  0  0  0  0
  6 10  1  0  0  0  0
  7  8  1  0  0  0  0
  8  9  1  0  0  0  0
  9 21  1  0  0  0  0
  9 22  1  0  0  0  0
  9 23  1  0  0  0  0
 10 24  1  0  0  0  0
 10 25  1  0  0  0  0
 10 26  1  0  0  0  0
 11 12  1  0  0  0  0
 12 13  2  0  0  0  0
 12 14  1  0  0  0  0
 14 15  1  0  0  0  0
 14 27  1  0  0  0  0
 15 28  1  0  0  0  0
 15 29  1  0  0  0  0
 15 30  1  0  0  0  0
M  END
$$$$

 OpenBabel05152416193D

 20 20  0  0  0  0  0  0  0  0999 V2000
    2.3709    1.4596   -0.0081 C   0  0  0  0  0  0  0  0  0  0  0  0
    1.2771    0.4266    0.0025 C   0  0  0  0  0  0  0  0  0  0  0  0
    1.3927   -1.0065    0.0181 C   0  0  0  0  0  0  0  0  0  0  0  0
    0.1944   -1.7582    0.0096 C   0  0  0  0  0  0  0  0  0  0  0  0
   -1.0652   -1.1449   -0.0057 C   0  0  0  0  0  0  0  0  0  0  0  0
   -1.1599    0.2432   -0.0095 C   0  0  0  0  0  0  0  0  0  0  0  0
   -0.0059    1.0090   -0.0075 C   0  0  0  0  0  0  0  0  0  0  0  0
   -2.3595    0.8682   -0.0147 O   0  0  0  0  0  0  0  0  0  0  0  0
    2.8940   -2.0759    0.0469 S   0  0  0  0  0  0  0  0  0  0  0  0
    4.3646   -1.0053    0.1211 C   0  0  0  0  0  0  0  0  0  0  0  0
    2.2604    2.0839   -0.9181 H   0  0  0  0  0  0  0  0  0  0  0  0
    2.2746    2.0926    0.8979 H   0  0  0  0  0  0  0  0  0  0  0  0
    3.3938    1.1437   -0.0261 H   0  0  0  0  0  0  0  0  0  0  0  0
    0.2263   -2.8420    0.0151 H   0  0  0  0  0  0  0  0  0  0  0  0
   -1.9633   -1.7505   -0.0126 H   0  0  0  0  0  0  0  0  0  0  0  0
   -0.1069    2.0879   -0.0150 H   0  0  0  0  0  0  0  0  0  0  0  0
   -3.1979    0.3901   -0.0030 H   0  0  0  0  0  0  0  0  0  0  0  0
    4.4775   -0.4514   -0.8356 H   0  0  0  0  0  0  0  0  0  0  0  0
    4.3598   -0.3927    1.0488 H   0  0  0  0  0  0  0  0  0  0  0  0
    5.2788   -1.6260    0.1962 H   0  0  0  0  0  0  0  0  0  0  0  0
  1  2  1  0  0  0  0
  1 11  1  0  0  0  0
  1 12  1  0  0  0  0
  1 13  1  0  0  0  0
  2  3  2  0  0  0  0
  2  7  1  0  0  0  0
  3  4  1  0  0  0  0
  3  9  1  0  0  0  0
  4  5  2  0  0  0  0
  4 14  1  0  0  0  0
  5  6  1  0  0  0  0
  5 15  1  0  0  0  0
  6  7  2  0  0  0  0
  6  8  1  0  0  0  0
  7 16  1  0  0  0  0
  8 17  1  0  0  0  0
  9 10  1  0  0  0  0
 10 18  1  0  0  0  0
 10 19  1  0  0  0  0
 10 20  1  0  0  0  0
M  END
$$$$

 OpenBabel05152416193D

 21 23  0  0  0  0  0  0  0  0999 V2000
    0.9341    0.0322   -0.1451 C   0  0  0  0  0  0  0  0  0  0  0  0
    0.5962   -1.2044    0.6289 C   0  0  0  0  0  0  0  0  0  0  0  0
    0.0150   -1.0968    1.8925 C   0  0  0  0  0  0  0  0  0  0  0  0
   -0.2679   -2.2381    2.6353 C   0  0  0  0  0  0  0  0  0  0  0  0
    0.0640   -3.5272    2.1333 C   0  0  0  0  0  0  0  0  0  0  0  0
    0.6450   -3.6338    0.8587 C   0  0  0  0  0  0  0  0  0  0  0  0
    0.8874   -2.4731    0.1020 C   0  0  0  0  0  0  0  0  0  0  0  0
   -0.2189   -4.6366    2.8961 N   0  0  0  0  0  0  0  0  0  0  0  0
   -0.8419   -4.4720    4.0964 C   0  0  0  0  0  0  0  0  0  0  0  0
   -1.1804   -3.2018    4.5560 C   0  0  0  0  0  0  0  0  0  0  0  0
   -0.8772   -2.1035    3.8352 N   0  0  0  0  0  0  0  0  0  0  0  0
   -2.0121   -3.1747    6.0350 S   0  0  0  0  0  0  0  0  0  0  0  0
   -2.1063   -4.8144    6.4051 C   0  0  0  0  0  0  0  0  0  0  0  0
   -2.6436   -5.2742    7.3953 O   0  0  0  0  0  0  0  0  0  0  0  0
   -1.3452   -5.7065    5.1725 S   0  0  0  0  0  0  0  0  0  0  0  0
    0.6129    0.9520    0.3920 H   0  0  0  0  0  0  0  0  0  0  0  0
    0.4630    0.0200   -1.1497 H   0  0  0  0  0  0  0  0  0  0  0  0
    2.0370    0.0664   -0.2519 H   0  0  0  0  0  0  0  0  0  0  0  0
   -0.2221   -0.1270    2.3128 H   0  0  0  0  0  0  0  0  0  0  0  0
    0.9034   -4.5977    0.4361 H   0  0  0  0  0  0  0  0  0  0  0  0
    1.3073   -2.5531   -0.8934 H   0  0  0  0  0  0  0  0  0  0  0  0
  1  2  1  0  0  0  0
  1 16  1  0  0  0  0
  1 17  1  0  0  0  0
  1 18  1  0  0  0  0
  2  3  2  0  0  0  0
  2  7  1  0  0  0  0
  3  4  1  0  0  0  0
  3 19  1  0  0  0  0
  4  5  2  0  0  0  0
  4 11  1  0  0  0  0
  5  6  1  0  0  0  0
  5  8  1  0  0  0  0
  6  7  2  0  0  0  0
  6 20  1  0  0  0  0
  7 21  1  0  0  0  0
  8  9  2  0  0  0  0
  9 10  1  0  0  0  0
  9 15  1  0  0  0  0
 10 11  2  0  0  0  0
 10 12  1  0  0  0  0
 12 13  1  0  0  0  0
 13 14  2  0  0  0  0
 13 15  1  0  0  0  0
M  END
$$$$

 OpenBabel05152416193D

 50 52  0  0  1  0  0  0  0  0999 V2000
   -1.8317   -6.2350    2.0793 C   0  0  0  0  0  0  0  0  0  0  0  0
   -0.3156   -6.1368    2.2723 C   0  0  0  0  0  0  0  0  0  0  0  0
    0.5771   -5.0940    1.4940 C   0  0  2  0  0  0  0  0  0  0  0  0
    0.3894   -4.9846    3.0563 C   0  0  1  0  0  0  0  0  0  0  0  0
   -0.3620   -3.9923    3.9852 C   0  0  0  0  0  0  0  0  0  0  0  0
    0.1312   -3.8206    5.0956 O   0  0  0  0  0  0  0  0  0  0  0  0
   -1.4367   -3.2184    3.6808 O   0  0  0  0  0  0  0  0  0  0  0  0
   -2.1004   -3.1522    2.4790 C   0  0  2  0  0  0  0  0  0  0  0  0
   -1.5955   -2.0215    1.7437 C   0  0  0  0  0  0  0  0  0  0  0  0
   -1.1360   -1.1517    1.1484 N   0  0  0  0  0  0  0  0  0  0  0  0
   -3.5812   -3.1026    2.6545 C   0  0  0  0  0  0  0  0  0  0  0  0
   -4.1556   -1.8376    2.7400 C   0  0  0  0  0  0  0  0  0  0  0  0
   -5.4892   -1.7110    3.0433 C   0  0  0  0  0  0  0  0  0  0  0  0
   -6.2912   -2.8474    3.1469 C   0  0  0  0  0  0  0  0  0  0  0  0
   -5.7622   -4.0987    3.0308 C   0  0  0  0  0  0  0  0  0  0  0  0
   -4.4201   -4.2441    2.7931 C   0  0  0  0  0  0  0  0  0  0  0  0
   -6.0031   -0.4911    3.2470 O   0  0  0  0  0  0  0  0  0  0  0  0
   -7.1888   -0.2953    3.8643 C   0  0  0  0  0  0  0  0  0  0  0  0
   -8.0510    0.6113    3.2849 C   0  0  0  0  0  0  0  0  0  0  0  0
   -9.2909    0.8613    3.8616 C   0  0  0  0  0  0  0  0  0  0  0  0
   -9.7086    0.1438    4.9823 C   0  0  0  0  0  0  0  0  0  0  0  0
   -8.8586   -0.7928    5.5682 C   0  0  0  0  0  0  0  0  0  0  0  0
   -7.5873   -1.0012    5.0310 C   0  0  0  0  0  0  0  0  0  0  0  0
    0.0514   -4.0446    0.5719 C   0  0  0  0  0  0  0  0  0  0  0  0
   -0.7219   -4.3192   -0.5081 C   0  0  0  0  0  0  0  0  0  0  0  0
   -1.3500   -3.2775   -1.4118 C   0  0  0  0  0  0  0  0  0  0  0  0
   -0.9371   -3.5171   -2.6966 F   0  0  0  0  0  0  0  0  0  0  0  0
   -2.7336   -3.3846   -1.3380 F   0  0  0  0  0  0  0  0  0  0  0  0
   -1.0015   -1.9798   -1.1409 F   0  0  0  0  0  0  0  0  0  0  0  0
   -0.9971   -5.9897   -1.0146 Cl  0  0  0  0  0  0  0  0  0  0  0  0
    0.3152   -7.5016    2.2744 C   0  0  0  0  0  0  0  0  0  0  0  0
   -2.2532   -5.5866    2.7879 H   0  0  0  0  0  0  0  0  0  0  0  0
   -2.2442   -6.1704    1.0617 H   0  0  0  0  0  0  0  0  0  0  0  0
   -2.2794   -7.1189    2.5502 H   0  0  0  0  0  0  0  0  0  0  0  0
    1.6329   -5.2672    1.2324 H   0  0  0  0  0  0  0  0  0  0  0  0
    1.2029   -5.4407    3.6518 H   0  0  0  0  0  0  0  0  0  0  0  0
   -1.8549   -3.9245    1.8332 H   0  0  0  0  0  0  0  0  0  0  0  0
   -3.5552   -0.9476    2.5998 H   0  0  0  0  0  0  0  0  0  0  0  0
   -7.3406   -2.7631    3.3264 H   0  0  0  0  0  0  0  0  0  0  0  0
   -6.3972   -4.9597    3.1528 H   0  0  0  0  0  0  0  0  0  0  0  0
   -4.1559   -5.2697    2.7347 H   0  0  0  0  0  0  0  0  0  0  0  0
   -7.7506    1.0997    2.3685 H   0  0  0  0  0  0  0  0  0  0  0  0
   -9.9358    1.6050    3.4332 H   0  0  0  0  0  0  0  0  0  0  0  0
  -10.6944    0.3163    5.3877 H   0  0  0  0  0  0  0  0  0  0  0  0
   -9.1852   -1.3478    6.4372 H   0  0  0  0  0  0  0  0  0  0  0  0
   -6.9389   -1.7329    5.5013 H   0  0  0  0  0  0  0  0  0  0  0  0
    0.3687   -3.0468    0.8285 H   0  0  0  0  0  0  0  0  0  0  0  0
    0.4602   -7.8410    1.2317 H   0  0  0  0  0  0  0  0  0  0  0  0
    1.2548   -7.4915    2.8451 H   0  0  0  0  0  0  0  0  0  0  0  0
   -0.3880   -8.2012    2.7781 H   0  0  0  0  0  0  0  0  0  0  0  0
  1  2  1  0  0  0  0
  1 32  1  0  0  0  0
  1 33  1  0  0  0  0
  1 34  1  0  0  0  0
  2  3  1  0  0  0  0
  2  4  1  0  0  0  0
  2 31  1  0  0  0  0
  3  4  1  0  0  0  0
  3 35  1  6  0  0  0
  3 24  1  0  0  0  0
  4  5  1  0  0  0  0
  4 36  1  1  0  0  0
  5  6  2  0  0  0  0
  5  7  1  0  0  0  0
  8 11  1  0  0  0  0
  8 37  1  6  0  0  0
  8  9  1  0  0  0  0
  8  7  1  0  0  0  0
  9 10  3  0  0  0  0
 11 12  2  0  0  0  0
 11 16  1  0  0  0  0
 12 13  1  0  0  0  0
 12 38  1  0  0  0  0
 13 14  2  0  0  0  0
 13 17  1  0  0  0  0
 14 15  1  0  0  0  0
 14 39  1  0  0  0  0
 15 16  2  0  0  0  0
 15 40  1  0  0  0  0
 16 41  1  0  0  0  0
 17 18  1  0  0  0  0
 18 19  2  0  0  0  0
 18 23  1  0  0  0  0
 19 20  1  0  0  0  0
 19 42  1  0  0  0  0
 20 21  2  0  0  0  0
 20 43  1  0  0  0  0
 21 22  1  0  0  0  0
 21 44  1  0  0  0  0
 22 23  2  0  0  0  0
 22 45  1  0  0  0  0
 23 46  1  0  0  0  0
 24 25  2  0  0  0  0
 24 47  1  0  0  0  0
 25 26  1  0  0  0  0
 25 30  1  0  0  0  0
 26 27  1  0  0  0  0
 26 28  1  0  0  0  0
 26 29  1  0  0  0  0
 31 48  1  0  0  0  0
 31 49  1  0  0  0  0
 31 50  1  0  0  0  0
M  END
$$$$

 OpenBabel05152416193D

 13 13  0  0  0  0  0  0  0  0999 V2000
   -0.6990    1.2032   -0.0006 C   0  0  0  0  0  0  0  0  0  0  0  0
    0.6986    1.2000    0.0005 C   0  0  0  0  0  0  0  0  0  0  0  0
    1.3931   -0.0108    0.0008 C   0  0  0  0  0  0  0  0  0  0  0  0
    0.6958   -1.2224    0.0009 C   0  0  0  0  0  0  0  0  0  0  0  0
   -0.7086   -1.2298    0.0002 C   0  0  0  0  0  0  0  0  0  0  0  0
   -1.4098   -0.0040   -0.0010 C   0  0  0  0  0  0  0  0  0  0  0  0
   -3.5279    0.0958   -0.0040 I   0  0  0  0  0  0  0  0  0  0  0  0
   -1.3556   -2.4153    0.0010 O   0  0  0  0  0  0  0  0  0  0  0  0
    1.7954   -3.0290    0.0026 I   0  0  0  0  0  0  0  0  0  0  0  0
    1.7672    3.0183    0.0019 I   0  0  0  0  0  0  0  0  0  0  0  0
   -1.2332    2.1447   -0.0010 H   0  0  0  0  0  0  0  0  0  0  0  0
    2.4752   -0.0107    0.0013 H   0  0  0  0  0  0  0  0  0  0  0  0
   -2.3178   -2.4989    0.0023 H   0  0  0  0  0  0  0  0  0  0  0  0
  1  2  2  0  0  0  0
  1  6  1  0  0  0  0
  1 11  1  0  0  0  0
  2  3  1  0  0  0  0
  2 10  1  0  0  0  0
  3  4  2  0  0  0  0
  3 12  1  0  0  0  0
  4  5  1  0  0  0  0
  4  9  1  0  0  0  0
  5  6  2  0  0  0  0
  5  8  1  0  0  0  0
  6  7  1  0  0  0  0
  8 13  1  0  0  0  0
M  END
$$$$

 OpenBabel05152416193D

 38 40  0  0  0  0  0  0  0  0999 V2000
    1.4170   -0.1474   -0.0050 C   0  0  0  0  0  0  0  0  0  0  0  0
    0.8425    1.1259    0.0428 C   0  0  0  0  0  0  0  0  0  0  0  0
   -0.5526    1.2667    0.0566 C   0  0  0  0  0  0  0  0  0  0  0  0
   -1.3605    0.1159   -0.0217 C   0  0  0  0  0  0  0  0  0  0  0  0
   -0.7974   -1.1519   -0.0546 C   0  0  0  0  0  0  0  0  0  0  0  0
    0.6066   -1.2765   -0.0462 C   0  0  0  0  0  0  0  0  0  0  0  0
   -1.6298   -2.2185   -0.1265 O   0  0  0  0  0  0  0  0  0  0  0  0
   -1.2457   -3.4965    0.0833 C   0  0  0  0  0  0  0  0  0  0  0  0
   -1.6248   -4.4662   -0.8411 C   0  0  0  0  0  0  0  0  0  0  0  0
   -1.1678   -5.7769   -0.7007 C   0  0  0  0  0  0  0  0  0  0  0  0
   -0.3325   -6.1212    0.3723 C   0  0  0  0  0  0  0  0  0  0  0  0
    0.0129   -5.1539    1.3253 C   0  0  0  0  0  0  0  0  0  0  0  0
   -0.4479   -3.8461    1.1862 C   0  0  0  0  0  0  0  0  0  0  0  0
    0.1763   -7.4367    0.4800 N   0  0  0  0  0  0  0  0  0  0  0  0
   -1.1018    2.5098    0.1193 O   0  0  0  0  0  0  0  0  0  0  0  0
   -2.3913    2.7643    0.4597 C   0  0  0  0  0  0  0  0  0  0  0  0
   -3.0973    3.7172   -0.2739 C   0  0  0  0  0  0  0  0  0  0  0  0
   -4.4470    3.9520   -0.0097 C   0  0  0  0  0  0  0  0  0  0  0  0
   -5.1091    3.2369    0.9987 C   0  0  0  0  0  0  0  0  0  0  0  0
   -4.3964    2.3074    1.7689 C   0  0  0  0  0  0  0  0  0  0  0  0
   -3.0442    2.0765    1.5083 C   0  0  0  0  0  0  0  0  0  0  0  0
   -6.4916    3.4409    1.2203 N   0  0  0  0  0  0  0  0  0  0  0  0
    2.4919   -0.2687   -0.0105 H   0  0  0  0  0  0  0  0  0  0  0  0
    1.4869    1.9940    0.0718 H   0  0  0  0  0  0  0  0  0  0  0  0
   -2.4384    0.1858   -0.0599 H   0  0  0  0  0  0  0  0  0  0  0  0
    1.0851   -2.2440   -0.0893 H   0  0  0  0  0  0  0  0  0  0  0  0
   -2.2410   -4.1939   -1.6889 H   0  0  0  0  0  0  0  0  0  0  0  0
   -1.4455   -6.5136   -1.4414 H   0  0  0  0  0  0  0  0  0  0  0  0
    0.6523   -5.4025    2.1626 H   0  0  0  0  0  0  0  0  0  0  0  0
   -0.1625   -3.1002    1.9191 H   0  0  0  0  0  0  0  0  0  0  0  0
   -0.0526   -8.1434   -0.2330 H   0  0  0  0  0  0  0  0  0  0  0  0
    0.8301   -7.6845    1.2362 H   0  0  0  0  0  0  0  0  0  0  0  0
   -2.6031    4.2494   -1.0756 H   0  0  0  0  0  0  0  0  0  0  0  0
   -4.9830    4.6760   -0.6076 H   0  0  0  0  0  0  0  0  0  0  0  0
   -4.8915    1.7507    2.5564 H   0  0  0  0  0  0  0  0  0  0  0  0
   -2.5143    1.3428    2.1063 H   0  0  0  0  0  0  0  0  0  0  0  0
   -7.0208    4.1034    0.6346 H   0  0  0  0  0  0  0  0  0  0  0  0
   -7.0013    2.8862    1.9235 H   0  0  0  0  0  0  0  0  0  0  0  0
  1  2  2  0  0  0  0
  1  6  1  0  0  0  0
  1 23  1  0  0  0  0
  2  3  1  0  0  0  0
  2 24  1  0  0  0  0
  3  4  2  0  0  0  0
  3 15  1  0  0  0  0
  4  5  1  0  0  0  0
  4 25  1  0  0  0  0
  5  6  2  0  0  0  0
  5  7  1  0  0  0  0
  6 26  1  0  0  0  0
  7  8  1  0  0  0  0
  8  9  2  0  0  0  0
  8 13  1  0  0  0  0
  9 10  1  0  0  0  0
  9 27  1  0  0  0  0
 10 11  2  0  0  0  0
 10 28  1  0  0  0  0
 11 12  1  0  0  0  0
 11 14  1  0  0  0  0
 12 13  2  0  0  0  0
 12 29  1  0  0  0  0
 13 30  1  0  0  0  0
 14 31  1  0  0  0  0
 14 32  1  0  0  0  0
 15 16  1  0  0  0  0
 16 17  2  0  0  0  0
 16 21  1  0  0  0  0
 17 18  1  0  0  0  0
 17 33  1  0  0  0  0
 18 19  2  0  0  0  0
 18 34  1  0  0  0  0
 19 20  1  0  0  0  0
 19 22  1  0  0  0  0
 20 21  2  0  0  0  0
 20 35  1  0  0  0  0
 21 36  1  0  0  0  0
 22 37  1  0  0  0  0
 22 38  1  0  0  0  0
M  END
$$$$

 OpenBabel05152416193D

 22 15  0  0  0  0  0  0  0  0999 V2000
    1.9239    1.7377   -1.4375 O   0  0  0  0  0  0  0  0  0  0  0  0
    0.7029    0.5105    0.7915 O   0  0  0  0  0  0  0  0  0  0  0  0
    1.3028   -1.3791   -0.5719 O   0  0  0  0  0  0  0  0  0  0  0  0
    0.3106   -0.1321   -1.5504 O   0  0  0  0  0  0  0  0  0  0  0  0
   -0.3050   -0.9293    0.2621 O   0  0  0  0  0  0  0  0  0  0  0  0
    1.6281   -1.5756    1.3825 O   0  0  0  0  0  0  0  0  0  0  0  0
    1.7119    1.0671    2.5854 Cl  0  0  0  0  0  0  0  0  0  0  0  0
    4.0533    0.1331    0.4672 Dy  0  0  0  0  0  0  0  0  0  0  0  0
    5.6628   -0.5482    2.3512 Cl  0  0  0  0  0  0  0  0  0  0  0  0
    5.3929    0.6079   -2.3377 Cl  0  0  0  0  0  0  0  0  0  0  0  0
    1.1535    1.5202   -1.0572 H   0  0  0  0  0  0  0  0  0  0  0  0
    2.8850    1.2858   -0.8869 H   0  0  0  0  0  0  0  0  0  0  0  0
   -0.1716    0.5349    1.3736 H   0  0  0  0  0  0  0  0  0  0  0  0
    1.9336    1.5778    0.6130 H   0  0  0  0  0  0  0  0  0  0  0  0
    0.4107    1.8052    0.2198 H   0  0  0  0  0  0  0  0  0  0  0  0
    2.7628   -1.3087   -0.9408 H   0  0  0  0  0  0  0  0  0  0  0  0
   -0.2028    0.3696   -1.8797 H   0  0  0  0  0  0  0  0  0  0  0  0
    1.7179    0.0812   -1.0219 H   0  0  0  0  0  0  0  0  0  0  0  0
   -0.7735    0.7414   -0.2668 H   0  0  0  0  0  0  0  0  0  0  0  0
    2.2426   -0.0735    0.6145 H   0  0  0  0  0  0  0  0  0  0  0  0
    1.0144   -1.0446    1.8302 H   0  0  0  0  0  0  0  0  0  0  0  0
    2.4937   -1.6118    0.7922 H   0  0  0  0  0  0  0  0  0  0  0  0
  1 11  1  0  0  0  0
  1 12  1  0  0  0  0
  2 13  1  0  0  0  0
  2 14  1  0  0  0  0
  3 15  1  0  0  0  0
  3 16  1  0  0  0  0
  4 17  1  0  0  0  0
  4 18  1  0  0  0  0
  5 19  1  0  0  0  0
  5 20  1  0  0  0  0
  6 21  1  0  0  0  0
  6 22  1  0  0  0  0
  7  8  1  0  0  0  0
  8  9  1  0  0  0  0
  8 10  1  0  0  0  0
M  END
$$$$

 OpenBabel05152416193D

 22 15  0  0  0  0  0  0  0  0999 V2000
   -0.2845    1.0553    0.4782 O   0  0  0  0  0  0  0  0  0  0  0  0
    1.3959   -0.9306    0.3666 O   0  0  0  0  0  0  0  0  0  0  0  0
    0.1707   -0.4338   -0.8824 O   0  0  0  0  0  0  0  0  0  0  0  0
    1.4056    0.7510    0.3210 O   0  0  0  0  0  0  0  0  0  0  0  0
    2.0263   -0.2968    1.8677 O   0  0  0  0  0  0  0  0  0  0  0  0
    1.6604    0.7750   -1.7574 O   0  0  0  0  0  0  0  0  0  0  0  0
   -0.3016   -1.0873    1.5212 Cl  0  0  0  0  0  0  0  0  0  0  0  0
    4.0959   -0.1932    0.0324 Eu  0  0  0  0  0  0  0  0  0  0  0  0
    5.4357   -1.4910    2.1497 Cl  0  0  0  0  0  0  0  0  0  0  0  0
    5.4119    1.4927   -2.0161 Cl  0  0  0  0  0  0  0  0  0  0  0  0
    0.1078    1.0191    1.5844 H   0  0  0  0  0  0  0  0  0  0  0  0
    2.7743    1.0148   -0.4812 H   0  0  0  0  0  0  0  0  0  0  0  0
    0.1789    1.1639   -1.1515 H   0  0  0  0  0  0  0  0  0  0  0  0
    2.1964   -1.1135    0.4145 H   0  0  0  0  0  0  0  0  0  0  0  0
   -0.1357   -0.4891   -1.3227 H   0  0  0  0  0  0  0  0  0  0  0  0
    2.6540   -0.7665   -1.0738 H   0  0  0  0  0  0  0  0  0  0  0  0
    0.0274   -1.9928   -0.5546 H   0  0  0  0  0  0  0  0  0  0  0  0
    1.7328    1.1702    0.6530 H   0  0  0  0  0  0  0  0  0  0  0  0
    1.5172   -1.7694   -1.0383 H   0  0  0  0  0  0  0  0  0  0  0  0
    3.0204    0.2625    1.3386 H   0  0  0  0  0  0  0  0  0  0  0  0
    0.8777    2.3203   -0.3780 H   0  0  0  0  0  0  0  0  0  0  0  0
    1.6055    0.2773   -1.3712 H   0  0  0  0  0  0  0  0  0  0  0  0
  1 11  1  0  0  0  0
  1 12  1  0  0  0  0
  2 13  1  0  0  0  0
  2 14  1  0  0  0  0
  3 15  1  0  0  0  0
  3 16  1  0  0  0  0
  4 17  1  0  0  0  0
  4 18  1  0  0  0  0
  5 19  1  0  0  0  0
  5 20  1  0  0  0  0
  6 21  1  0  0  0  0
  6 22  1  0  0  0  0
  7  8  1  0  0  0  0
  8  9  1  0  0  0  0
  8 10  1  0  0  0  0
M  END
$$$$

 OpenBabel05152416193D

 17 17  0  0  0  0  0  0  0  0999 V2000
    1.4049   -0.2014    0.0291 C   0  0  0  0  0  0  0  0  0  0  0  0
    0.8872    1.0957    0.0227 C   0  0  0  0  0  0  0  0  0  0  0  0
   -0.4964    1.3001   -0.0135 C   0  0  0  0  0  0  0  0  0  0  0  0
   -1.3819    0.2038   -0.0559 C   0  0  0  0  0  0  0  0  0  0  0  0
   -0.8370   -1.0980   -0.0278 C   0  0  0  0  0  0  0  0  0  0  0  0
    0.5417   -1.2947    0.0140 C   0  0  0  0  0  0  0  0  0  0  0  0
   -2.8558    0.4321   -0.1623 C   0  0  0  0  0  0  0  0  0  0  0  0
   -3.2823    1.5804   -0.1765 O   0  0  0  0  0  0  0  0  0  0  0  0
   -3.8547   -0.6909   -0.3100 C   0  0  0  0  0  0  0  0  0  0  0  0
   -3.5190   -1.6526   -1.7787 Cl  0  0  0  0  0  0  0  0  0  0  0  0
   -3.8737   -1.7323    1.1392 Cl  0  0  0  0  0  0  0  0  0  0  0  0
    2.4742   -0.3622    0.0450 H   0  0  0  0  0  0  0  0  0  0  0  0
    1.5599    1.9430    0.0360 H   0  0  0  0  0  0  0  0  0  0  0  0
   -0.8705    2.3173   -0.0251 H   0  0  0  0  0  0  0  0  0  0  0  0
   -1.4601   -1.9762   -0.0489 H   0  0  0  0  0  0  0  0  0  0  0  0
    0.9369   -2.3023    0.0238 H   0  0  0  0  0  0  0  0  0  0  0  0
   -4.8772   -0.2760   -0.4263 H   0  0  0  0  0  0  0  0  0  0  0  0
  1  2  2  0  0  0  0
  1  6  1  0  0  0  0
  1 12  1  0  0  0  0
  2  3  1  0  0  0  0
  2 13  1  0  0  0  0
  3  4  2  0  0  0  0
  3 14  1  0  0  0  0
  4  5  1  0  0  0  0
  4  7  1  0  0  0  0
  5  6  2  0  0  0  0
  5 15  1  0  0  0  0
  6 16  1  0  0  0  0
  7  8  2  0  0  0  0
  7  9  1  0  0  0  0
  9 10  1  0  0  0  0
  9 11  1  0  0  0  0
  9 17  1  0  0  0  0
M  END
$$$$

 OpenBabel05152416193D

 18 19  0  0  0  0  0  0  0  0999 V2000
   -1.3418   -1.5402   -0.0142 C   0  0  0  0  0  0  0  0  0  0  0  0
   -2.4049   -0.4881    0.0029 C   0  0  0  0  0  0  0  0  0  0  0  0
   -3.5943   -0.7472    0.0046 O   0  0  0  0  0  0  0  0  0  0  0  0
   -1.8599    0.9118    0.0180 C   0  0  0  0  0  0  0  0  0  0  0  0
   -0.3884    0.6446    0.0076 C   0  0  0  0  0  0  0  0  0  0  0  0
    0.6627    1.5732    0.0108 C   0  0  0  0  0  0  0  0  0  0  0  0
    1.9877    1.0949    0.0044 C   0  0  0  0  0  0  0  0  0  0  0  0
    2.2445   -0.2884   -0.0039 C   0  0  0  0  0  0  0  0  0  0  0  0
    1.1841   -1.1992   -0.0099 C   0  0  0  0  0  0  0  0  0  0  0  0
   -0.1194   -0.7134   -0.0055 C   0  0  0  0  0  0  0  0  0  0  0  0
   -1.3886   -2.1532   -0.9387 H   0  0  0  0  0  0  0  0  0  0  0  0
   -1.3854   -2.1802    0.8917 H   0  0  0  0  0  0  0  0  0  0  0  0
   -2.1901    1.4709   -0.8837 H   0  0  0  0  0  0  0  0  0  0  0  0
   -2.1786    1.4460    0.9392 H   0  0  0  0  0  0  0  0  0  0  0  0
    0.4708    2.6393    0.0181 H   0  0  0  0  0  0  0  0  0  0  0  0
    2.8200    1.7869    0.0067 H   0  0  0  0  0  0  0  0  0  0  0  0
    3.2617   -0.6576   -0.0064 H   0  0  0  0  0  0  0  0  0  0  0  0
    1.3682   -2.2654   -0.0172 H   0  0  0  0  0  0  0  0  0  0  0  0
  1  2  1  0  0  0  0
  1 10  1  0  0  0  0
  1 11  1  0  0  0  0
  1 12  1  0  0  0  0
  2  3  2  0  0  0  0
  2  4  1  0  0  0  0
  4  5  1  0  0  0  0
  4 13  1  0  0  0  0
  4 14  1  0  0  0  0
  5  6  2  0  0  0  0
  5 10  1  0  0  0  0
  6  7  1  0  0  0  0
  6 15  1  0  0  0  0
  7  8  2  0  0  0  0
  7 16  1  0  0  0  0
  8  9  1  0  0  0  0
  8 17  1  0  0  0  0
  9 10  2  0  0  0  0
  9 18  1  0  0  0  0
M  END
$$$$

 OpenBabel05152416193D

 51 54  0  0  1  0  0  0  0  0999 V2000
    1.2752    0.0262    0.1137 C   0  0  0  0  0  0  0  0  0  0  0  0
    0.6213    0.8294   -1.0802 C   0  0  2  0  0  0  0  0  0  0  0  0
   -0.0341   -0.0706   -2.2385 C   0  0  0  0  0  0  0  0  0  0  0  0
   -1.4079   -0.7256   -1.8737 C   0  0  0  0  0  0  0  0  0  0  0  0
   -1.5193   -0.9119   -0.3914 C   0  0  2  0  0  0  0  0  0  0  0  0
   -1.5853    0.6169    0.1441 C   0  0  0  0  0  0  0  0  0  0  0  0
   -0.5507    1.6619   -0.5154 C   0  0  2  0  0  0  0  0  0  0  0  0
   -0.0793    2.8269    0.4153 C   0  0  0  0  0  0  0  0  0  0  0  0
    1.0458    3.6728   -0.2449 C   0  0  0  0  0  0  0  0  0  0  0  0
    2.2156    2.7505   -0.6261 C   0  0  2  0  0  0  0  0  0  0  0  0
    1.7582    1.6926   -1.6925 C   0  0  2  0  0  0  0  0  0  0  0  0
    2.9324    0.7609   -2.1742 C   0  0  0  0  0  0  0  0  0  0  0  0
    4.1936    1.5130   -2.5836 C   0  0  0  0  0  0  0  0  0  0  0  0
    4.6163    2.5225   -1.4596 C   0  0  1  0  0  0  0  0  0  0  0  0
    3.4603    3.4893   -1.0818 C   0  0  1  0  0  0  0  0  0  0  0  0
    3.3035    4.3684   -2.3157 C   0  0  0  0  0  0  0  0  0  0  0  0
    4.7515    4.7191   -2.6695 C   0  0  0  0  0  0  0  0  0  0  0  0
    5.5299    3.5548   -2.0617 C   0  0  0  0  0  0  0  0  0  0  0  0
    6.6637    3.7428   -1.5763 O   0  0  0  0  0  0  0  0  0  0  0  0
    5.1246    1.7188   -0.2084 C   0  0  0  0  0  0  0  0  0  0  0  0
   -0.4932   -1.7834    0.0712 O   0  0  0  0  0  0  0  0  0  0  0  0
    1.6301   -0.9442   -0.2611 H   0  0  0  0  0  0  0  0  0  0  0  0
    0.6449   -0.0199    1.0270 H   0  0  0  0  0  0  0  0  0  0  0  0
    2.1934    0.4006    0.5679 H   0  0  0  0  0  0  0  0  0  0  0  0
   -0.2336    0.5624   -3.1450 H   0  0  0  0  0  0  0  0  0  0  0  0
    0.6884   -0.8328   -2.5581 H   0  0  0  0  0  0  0  0  0  0  0  0
   -2.4066   -0.8851   -2.3242 H   0  0  0  0  0  0  0  0  0  0  0  0
   -2.0434    0.1199   -2.1462 H   0  0  0  0  0  0  0  0  0  0  0  0
   -2.4317   -1.4604   -0.1022 H   0  0  0  0  0  0  0  0  0  0  0  0
   -2.5808    0.9888   -0.1813 H   0  0  0  0  0  0  0  0  0  0  0  0
   -1.6388    0.6969    1.2427 H   0  0  0  0  0  0  0  0  0  0  0  0
   -1.0289    2.1707   -1.3932 H   0  0  0  0  0  0  0  0  0  0  0  0
   -0.9195    3.5041    0.6903 H   0  0  0  0  0  0  0  0  0  0  0  0
    0.3216    2.4019    1.3583 H   0  0  0  0  0  0  0  0  0  0  0  0
    1.3981    4.4519    0.4739 H   0  0  0  0  0  0  0  0  0  0  0  0
    0.6865    4.2035   -1.1518 H   0  0  0  0  0  0  0  0  0  0  0  0
    2.5426    2.3170    0.3290 H   0  0  0  0  0  0  0  0  0  0  0  0
    1.3680    2.2554   -2.5704 H   0  0  0  0  0  0  0  0  0  0  0  0
    2.6163    0.0979   -3.0044 H   0  0  0  0  0  0  0  0  0  0  0  0
    3.2464    0.0734   -1.3788 H   0  0  0  0  0  0  0  0  0  0  0  0
    4.0239    2.0240   -3.5494 H   0  0  0  0  0  0  0  0  0  0  0  0
    4.9891    0.7633   -2.8079 H   0  0  0  0  0  0  0  0  0  0  0  0
    3.8030    4.1399   -0.2368 H   0  0  0  0  0  0  0  0  0  0  0  0
    2.6103    5.2286   -2.2437 H   0  0  0  0  0  0  0  0  0  0  0  0
    2.8947    3.7412   -3.1270 H   0  0  0  0  0  0  0  0  0  0  0  0
    5.1142    5.6596   -2.2092 H   0  0  0  0  0  0  0  0  0  0  0  0
    4.7691    4.9198   -3.7653 H   0  0  0  0  0  0  0  0  0  0  0  0
    6.0304    1.1156   -0.4343 H   0  0  0  0  0  0  0  0  0  0  0  0
    5.3200    2.3694    0.6672 H   0  0  0  0  0  0  0  0  0  0  0  0
    4.3838    0.9805    0.1630 H   0  0  0  0  0  0  0  0  0  0  0  0
   -0.3693   -2.5502   -0.5666 H   0  0  0  0  0  0  0  0  0  0  0  0
  1 22  1  0  0  0  0
  1 23  1  0  0  0  0
  1 24  1  0  0  0  0
  2  3  1  0  0  0  0
  2  7  1  0  0  0  0
  2 11  1  0  0  0  0
  2  1  1  6  0  0  0
  3  4  1  0  0  0  0
  3 25  1  0  0  0  0
  3 26  1  0  0  0  0
  4  5  1  0  0  0  0
  4 27  1  0  0  0  0
  4 28  1  0  0  0  0
  5  6  1  0  0  0  0
  5 29  1  1  0  0  0
  5 21  1  0  0  0  0
  6  7  1  0  0  0  0
  6 30  1  0  0  0  0
  6 31  1  0  0  0  0
  7  8  1  0  0  0  0
  7 32  1  1  0  0  0
  8  9  1  0  0  0  0
  8 33  1  0  0  0  0
  8 34  1  0  0  0  0
  9 10  1  0  0  0  0
  9 35  1  0  0  0  0
  9 36  1  0  0  0  0
 10 11  1  0  0  0  0
 10 15  1  0  0  0  0
 10 37  1  6  0  0  0
 11 12  1  0  0  0  0
 11 38  1  1  0  0  0
 12 13  1  0  0  0  0
 12 39  1  0  0  0  0
 12 40  1  0  0  0  0
 13 14  1  0  0  0  0
 13 41  1  0  0  0  0
 13 42  1  0  0  0  0
 14 15  1  0  0  0  0
 14 18  1  0  0  0  0
 14 20  1  6  0  0  0
 15 16  1  0  0  0  0
 15 43  1  1  0  0  0
 16 17  1  0  0  0  0
 16 44  1  0  0  0  0
 16 45  1  0  0  0  0
 17 18  1  0  0  0  0
 17 46  1  0  0  0  0
 17 47  1  0  0  0  0
 18 19  2  0  0  0  0
 20 48  1  0  0  0  0
 20 49  1  0  0  0  0
 20 50  1  0  0  0  0
 21 51  1  0  0  0  0
M  END
$$$$

 OpenBabel05152416193D

 30 30  0  0  0  0  0  0  0  0999 V2000
    1.0894    0.0484   -0.1060 C   0  0  0  0  0  0  0  0  0  0  0  0
    0.6653   -0.5473    1.1258 N   0  0  0  0  0  0  0  0  0  0  0  0
   -0.1842    0.2166    2.0400 C   0  0  0  0  0  0  0  0  0  0  0  0
   -1.5814   -0.4166    2.2693 C   0  0  0  0  0  0  0  0  0  0  0  0
   -1.5295   -1.7693    2.9889 C   0  0  0  0  0  0  0  0  0  0  0  0
   -0.8043   -1.6622    4.3635 C   0  0  0  0  0  0  0  0  0  0  0  0
   -1.5549   -0.7633    5.3117 C   0  0  0  0  0  0  0  0  0  0  0  0
   -1.3266    0.6298    5.3215 C   0  0  0  0  0  0  0  0  0  0  0  0
   -2.0140    1.4317    6.1682 N   0  0  0  0  0  0  0  0  0  0  0  0
   -2.9293    0.9283    7.0303 C   0  0  0  0  0  0  0  0  0  0  0  0
   -3.1923   -0.4415    7.0536 C   0  0  0  0  0  0  0  0  0  0  0  0
   -2.5086   -1.2871    6.1886 C   0  0  0  0  0  0  0  0  0  0  0  0
   -0.5426   -2.9259    4.9210 O   0  0  0  0  0  0  0  0  0  0  0  0
    1.1955   -1.7990    1.4064 N   0  0  0  0  0  0  0  0  0  0  0  0
    1.2576   -2.2453    2.5034 O   0  0  0  0  0  0  0  0  0  0  0  0
    0.7085    1.0828   -0.2225 H   0  0  0  0  0  0  0  0  0  0  0  0
    0.7315   -0.5781   -0.9442 H   0  0  0  0  0  0  0  0  0  0  0  0
    2.1993    0.0843   -0.1008 H   0  0  0  0  0  0  0  0  0  0  0  0
    0.3852    0.4118    2.9591 H   0  0  0  0  0  0  0  0  0  0  0  0
   -0.3930    1.2299    1.6307 H   0  0  0  0  0  0  0  0  0  0  0  0
   -2.2080    0.2775    2.8724 H   0  0  0  0  0  0  0  0  0  0  0  0
   -2.1050   -0.5268    1.2952 H   0  0  0  0  0  0  0  0  0  0  0  0
   -2.5572   -2.1643    3.1384 H   0  0  0  0  0  0  0  0  0  0  0  0
   -1.0494   -2.4960    2.3080 H   0  0  0  0  0  0  0  0  0  0  0  0
    0.1985   -1.2134    4.2695 H   0  0  0  0  0  0  0  0  0  0  0  0
   -0.6172    1.0974    4.6635 H   0  0  0  0  0  0  0  0  0  0  0  0
   -3.4502    1.5956    7.6964 H   0  0  0  0  0  0  0  0  0  0  0  0
   -3.9198   -0.8505    7.7360 H   0  0  0  0  0  0  0  0  0  0  0  0
   -2.7276   -2.3449    6.2107 H   0  0  0  0  0  0  0  0  0  0  0  0
   -1.3732   -3.4608    4.8898 H   0  0  0  0  0  0  0  0  0  0  0  0
  1  2  1  0  0  0  0
  1 16  1  0  0  0  0
  1 17  1  0  0  0  0
  1 18  1  0  0  0  0
  2  3  1  0  0  0  0
  2 14  1  0  0  0  0
  3  4  1  0  0  0  0
  3 19  1  0  0  0  0
  3 20  1  0  0  0  0
  4  5  1  0  0  0  0
  4 21  1  0  0  0  0
  4 22  1  0  0  0  0
  5  6  1  0  0  0  0
  5 23  1  0  0  0  0
  5 24  1  0  0  0  0
  6  7  1  0  0  0  0
  6 13  1  0  0  0  0
  6 25  1  0  0  0  0
  7  8  2  0  0  0  0
  7 12  1  0  0  0  0
  8  9  1  0  0  0  0
  8 26  1  0  0  0  0
  9 10  2  0  0  0  0
 10 11  1  0  0  0  0
 10 27  1  0  0  0  0
 11 12  2  0  0  0  0
 11 28  1  0  0  0  0
 12 29  1  0  0  0  0
 13 30  1  0  0  0  0
 14 15  2  0  0  0  0
M  END
$$$$

 OpenBabel05152416193D

 35 37  0  0  0  0  0  0  0  0999 V2000
    0.1106    0.9593   -0.0763 C   0  0  0  0  0  0  0  0  0  0  0  0
   -0.7942   -0.2836   -0.1192 C   0  0  0  0  0  0  0  0  0  0  0  0
    0.7060   -0.4137    0.1794 C   0  0  0  0  0  0  0  0  0  0  0  0
    1.7931   -0.9892   -0.8373 C   0  0  0  0  0  0  0  0  0  0  0  0
    3.2251   -0.3572   -0.5612 C   0  0  0  0  0  0  0  0  0  0  0  0
    3.7199   -0.4953    0.8814 C   0  0  0  0  0  0  0  0  0  0  0  0
    3.9115   -1.7715    1.4621 C   0  0  0  0  0  0  0  0  0  0  0  0
    4.1314   -1.9181    2.8246 C   0  0  0  0  0  0  0  0  0  0  0  0
    4.2854   -0.7969    3.6264 C   0  0  0  0  0  0  0  0  0  0  0  0
    4.2358    0.4771    3.0585 C   0  0  0  0  0  0  0  0  0  0  0  0
    3.9392    0.6421    1.6986 C   0  0  0  0  0  0  0  0  0  0  0  0
    3.8317    2.2909    1.0864 Cl  0  0  0  0  0  0  0  0  0  0  0  0
    1.8646   -2.5405   -0.6885 C   0  0  0  0  0  0  0  0  0  0  0  0
    0.6512   -3.2486   -1.0433 N   0  0  0  0  0  0  0  0  0  0  0  0
    0.4775   -4.5788   -0.9670 C   0  0  0  0  0  0  0  0  0  0  0  0
   -0.8100   -4.8875   -1.2112 N   0  0  0  0  0  0  0  0  0  0  0  0
   -1.3804   -3.6873   -1.4446 C   0  0  0  0  0  0  0  0  0  0  0  0
   -0.4861   -2.6966   -1.3636 N   0  0  0  0  0  0  0  0  0  0  0  0
    1.4456   -0.6865   -2.1716 O   0  0  0  0  0  0  0  0  0  0  0  0
    0.9324   -0.7155    1.9374 Cl  0  0  0  0  0  0  0  0  0  0  0  0
   -0.1231    1.5745    0.8181 H   0  0  0  0  0  0  0  0  0  0  0  0
    0.0473    1.3877   -1.1013 H   0  0  0  0  0  0  0  0  0  0  0  0
   -1.3399   -0.7090    0.7591 H   0  0  0  0  0  0  0  0  0  0  0  0
   -1.1780   -0.4488   -1.1450 H   0  0  0  0  0  0  0  0  0  0  0  0
    3.9834   -0.7921   -1.2490 H   0  0  0  0  0  0  0  0  0  0  0  0
    3.1442    0.7140   -0.8399 H   0  0  0  0  0  0  0  0  0  0  0  0
    3.8558   -2.6845    0.9015 H   0  0  0  0  0  0  0  0  0  0  0  0
    4.1693   -2.9123    3.2532 H   0  0  0  0  0  0  0  0  0  0  0  0
    4.4585   -0.9219    4.6854 H   0  0  0  0  0  0  0  0  0  0  0  0
    4.3968    1.3414    3.6862 H   0  0  0  0  0  0  0  0  0  0  0  0
    2.7184   -2.9401   -1.2830 H   0  0  0  0  0  0  0  0  0  0  0  0
    1.9598   -2.7914    0.3704 H   0  0  0  0  0  0  0  0  0  0  0  0
    1.2489   -5.2908   -0.7055 H   0  0  0  0  0  0  0  0  0  0  0  0
   -2.4261   -3.5134   -1.6299 H   0  0  0  0  0  0  0  0  0  0  0  0
    2.1252   -1.1128   -2.7662 H   0  0  0  0  0  0  0  0  0  0  0  0
  1  2  1  0  0  0  0
  1  3  1  0  0  0  0
  1 21  1  0  0  0  0
  1 22  1  0  0  0  0
  2  3  1  0  0  0  0
  2 23  1  0  0  0  0
  2 24  1  0  0  0  0
  3  4  1  0  0  0  0
  3 20  1  0  0  0  0
  4  5  1  0  0  0  0
  4 13  1  0  0  0  0
  4 19  1  0  0  0  0
  5  6  1  0  0  0  0
  5 25  1  0  0  0  0
  5 26  1  0  0  0  0
  6  7  2  0  0  0  0
  6 11  1  0  0  0  0
  7  8  1  0  0  0  0
  7 27  1  0  0  0  0
  8  9  2  0  0  0  0
  8 28  1  0  0  0  0
  9 10  1  0  0  0  0
  9 29  1  0  0  0  0
 10 11  2  0  0  0  0
 10 30  1  0  0  0  0
 11 12  1  0  0  0  0
 13 14  1  0  0  0  0
 13 31  1  0  0  0  0
 13 32  1  0  0  0  0
 14 15  1  0  0  0  0
 14 18  1  0  0  0  0
 15 16  2  0  0  0  0
 15 33  1  0  0  0  0
 16 17  1  0  0  0  0
 17 18  2  0  0  0  0
 17 34  1  0  0  0  0
 19 35  1  0  0  0  0
M  END
$$$$
